
  Mrv0541 04191616472D          

 27 28  0  0  0  0            999 V2000
   -5.0013   -1.2375    0.0000 C   0  0  0  0  0  0  0  0  0  0  0  0
   -4.2868   -0.8250    0.0000 C   0  0  0  0  0  0  0  0  0  0  0  0
   -4.2868    0.0000    0.0000 C   0  0  0  0  0  0  0  0  0  0  0  0
   -3.5724   -1.2375    0.0000 C   0  0  0  0  0  0  0  0  0  0  0  0
   -2.8579   -0.8250    0.0000 N   0  0  0  0  0  0  0  0  0  0  0  0
   -2.1434   -1.2375    0.0000 S   0  0  0  0  0  0  0  0  0  0  0  0
   -2.5559   -1.9520    0.0000 O   0  0  0  0  0  0  0  0  0  0  0  0
   -1.7309   -0.5230    0.0000 O   0  0  0  0  0  0  0  0  0  0  0  0
   -1.4289   -1.6500    0.0000 C   0  0  0  0  0  0  0  0  0  0  0  0
   -0.7145   -1.2375    0.0000 C   0  0  0  0  0  0  0  0  0  0  0  0
    0.0000   -1.6500    0.0000 C   0  0  0  0  0  0  0  0  0  0  0  0
    0.0000   -2.4750    0.0000 C   0  0  0  0  0  0  0  0  0  0  0  0
    0.7145   -2.8875    0.0000 C   0  0  0  0  0  0  0  0  0  0  0  0
    1.4289   -2.4750    0.0000 C   0  0  0  0  0  0  0  0  0  0  0  0
    2.1434   -2.8875    0.0000 C   0  0  0  0  0  0  0  0  0  0  0  0
    2.1434   -3.7125    0.0000 O   0  0  0  0  0  0  0  0  0  0  0  0
    2.8579   -2.4750    0.0000 N   0  0  0  0  0  0  0  0  0  0  0  0
    3.5724   -2.8875    0.0000 C   0  0  0  0  0  0  0  0  0  0  0  0
    4.2868   -2.4750    0.0000 C   0  0  0  0  0  0  0  0  0  0  0  0
    5.0013   -2.8875    0.0000 C   0  0  0  0  0  0  0  0  0  0  0  0
    5.0013   -3.7125    0.0000 C   0  0  0  0  0  0  0  0  0  0  0  0
    5.7158   -4.1250    0.0000 Cl  0  0  0  0  0  0  0  0  0  0  0  0
    4.2868   -4.1250    0.0000 C   0  0  0  0  0  0  0  0  0  0  0  0
    3.5724   -3.7125    0.0000 C   0  0  0  0  0  0  0  0  0  0  0  0
    2.8579   -4.1250    0.0000 C   0  0  0  0  0  0  0  0  0  0  0  0
   -0.7145   -2.8875    0.0000 C   0  0  0  0  0  0  0  0  0  0  0  0
   -1.4289   -2.4750    0.0000 C   0  0  0  0  0  0  0  0  0  0  0  0
  1  2  1  0  0  0  0
  2  3  1  0  0  0  0
  2  4  1  0  0  0  0
  4  5  1  0  0  0  0
  5  6  1  0  0  0  0
  6  7  2  0  0  0  0
  6  8  2  0  0  0  0
  6  9  1  0  0  0  0
  9 10  2  0  0  0  0
 10 11  1  0  0  0  0
 11 12  2  0  0  0  0
 12 13  1  0  0  0  0
 13 14  1  0  0  0  0
 14 15  1  0  0  0  0
 15 16  2  0  0  0  0
 15 17  1  0  0  0  0
 17 18  1  0  0  0  0
 18 19  2  0  0  0  0
 19 20  1  0  0  0  0
 20 21  2  0  0  0  0
 21 22  1  0  0  0  0
 21 23  1  0  0  0  0
 23 24  2  0  0  0  0
 18 24  1  0  0  0  0
 24 25  1  0  0  0  0
 12 26  1  0  0  0  0
 26 27  2  0  0  0  0
  9 27  1  0  0  0  0
M  END
> <COMPOUND_ID>
MMV161996

$$$$

  Mrv0541 04191616472D          

 22 23  0  0  0  0            999 V2000
   -2.8579   -1.6500    0.0000 C   0  0  0  0  0  0  0  0  0  0  0  0
   -2.1434   -1.2375    0.0000 O   0  0  0  0  0  0  0  0  0  0  0  0
   -1.4289   -1.6500    0.0000 C   0  0  0  0  0  0  0  0  0  0  0  0
   -0.7145   -1.2375    0.0000 C   0  0  0  0  0  0  0  0  0  0  0  0
    0.0000   -1.6500    0.0000 C   0  0  0  0  0  0  0  0  0  0  0  0
    0.0000   -2.4750    0.0000 C   0  0  0  0  0  0  0  0  0  0  0  0
    0.7145   -2.8875    0.0000 O   0  0  0  0  0  0  0  0  0  0  0  0
    1.4289   -2.4750    0.0000 C   0  0  0  0  0  0  0  0  0  0  0  0
    1.4289   -1.6500    0.0000 C   0  0  0  0  0  0  0  0  0  0  0  0
    2.1434   -2.8875    0.0000 C   0  0  0  0  0  0  0  0  0  0  0  0
    2.1434   -3.7125    0.0000 O   0  0  0  0  0  0  0  0  0  0  0  0
    2.8579   -2.4750    0.0000 N   0  0  0  0  0  0  0  0  0  0  0  0
    3.5724   -2.8875    0.0000 C   0  0  0  0  0  0  0  0  0  0  0  0
    4.2868   -2.4750    0.0000 C   0  0  0  0  0  0  0  0  0  0  0  0
    5.0013   -2.8875    0.0000 C   0  0  0  0  0  0  0  0  0  0  0  0
    5.0013   -3.7125    0.0000 C   0  0  0  0  0  0  0  0  0  0  0  0
    5.7158   -4.1250    0.0000 Cl  0  0  0  0  0  0  0  0  0  0  0  0
    4.2868   -4.1250    0.0000 C   0  0  0  0  0  0  0  0  0  0  0  0
    3.5724   -3.7125    0.0000 C   0  0  0  0  0  0  0  0  0  0  0  0
    2.8579   -4.1250    0.0000 C   0  0  0  0  0  0  0  0  0  0  0  0
   -0.7145   -2.8875    0.0000 C   0  0  0  0  0  0  0  0  0  0  0  0
   -1.4289   -2.4750    0.0000 C   0  0  0  0  0  0  0  0  0  0  0  0
  1  2  1  0  0  0  0
  2  3  1  0  0  0  0
  3  4  2  0  0  0  0
  4  5  1  0  0  0  0
  5  6  2  0  0  0  0
  6  7  1  0  0  0  0
  7  8  1  0  0  0  0
  8  9  1  0  0  0  0
  8 10  1  0  0  0  0
 10 11  2  0  0  0  0
 10 12  1  0  0  0  0
 12 13  1  0  0  0  0
 13 14  2  0  0  0  0
 14 15  1  0  0  0  0
 15 16  2  0  0  0  0
 16 17  1  0  0  0  0
 16 18  1  0  0  0  0
 18 19  2  0  0  0  0
 13 19  1  0  0  0  0
 19 20  1  0  0  0  0
  6 21  1  0  0  0  0
 21 22  2  0  0  0  0
  3 22  1  0  0  0  0
M  END
> <COMPOUND_ID>
MMV202458

$$$$

  Mrv0541 04191616472D          

 23 26  0  0  0  0            999 V2000
   -0.1286   -2.2179    0.0000 O   0  0  0  0  0  0  0  0  0  0  0  0
   -0.1286   -1.3929    0.0000 C   0  0  0  0  0  0  0  0  0  0  0  0
   -0.8411   -0.9804    0.0000 C   0  0  0  0  0  0  0  0  0  0  0  0
   -1.5558   -1.3924    0.0000 C   0  0  0  0  0  0  0  0  0  0  0  0
   -1.5563   -2.2174    0.0000 O   0  0  0  0  0  0  0  0  0  0  0  0
   -2.2700   -0.9795    0.0000 N   0  0  0  0  0  0  0  0  0  0  0  0
   -2.9847   -1.3916    0.0000 C   0  0  0  0  0  0  0  0  0  0  0  0
   -2.9852   -2.2166    0.0000 C   0  0  0  0  0  0  0  0  0  0  0  0
   -3.6999   -2.6286    0.0000 C   0  0  0  0  0  0  0  0  0  0  0  0
   -4.4142   -2.2157    0.0000 C   0  0  0  0  0  0  0  0  0  0  0  0
   -4.4137   -1.3907    0.0000 N   0  0  0  0  0  0  0  0  0  0  0  0
   -3.6990   -0.9786    0.0000 C   0  0  0  0  0  0  0  0  0  0  0  0
   -0.8411   -0.1554    0.0000 C   0  0  0  0  0  0  0  0  0  0  0  0
   -1.5558    0.2567    0.0000 O   0  0  0  0  0  0  0  0  0  0  0  0
   -0.1286    0.2571    0.0000 N   0  0  0  0  0  0  0  0  0  0  0  0
    0.1714    1.1143    0.0000 C   0  0  0  0  0  0  0  0  0  0  0  0
    0.9964    1.1143    0.0000 C   0  0  0  0  0  0  0  0  0  0  0  0
    1.3018    0.2571    0.0000 C   0  0  0  0  0  0  0  0  0  0  0  0
    2.0143   -0.1554    0.0000 C   0  0  0  0  0  0  0  0  0  0  0  0
    2.0143   -0.9804    0.0000 C   0  0  0  0  0  0  0  0  0  0  0  0
    1.3018   -1.3929    0.0000 C   0  0  0  0  0  0  0  0  0  0  0  0
    0.5839   -0.9804    0.0000 C   0  0  0  0  0  0  0  0  0  0  0  0
    0.5839   -0.1554    0.0000 C   0  0  0  0  0  0  0  0  0  0  0  0
  1  2  1  0  0  0  0
  2  3  2  0  0  0  0
  3  4  1  0  0  0  0
  4  5  2  0  0  0  0
  4  6  1  0  0  0  0
  6  7  1  0  0  0  0
  7  8  2  0  0  0  0
  8  9  1  0  0  0  0
  9 10  2  0  0  0  0
 10 11  1  0  0  0  0
 11 12  2  0  0  0  0
  7 12  1  0  0  0  0
  3 13  1  0  0  0  0
 13 14  2  0  0  0  0
 13 15  1  0  0  0  0
 15 16  1  0  0  0  0
 16 17  1  0  0  0  0
 17 18  1  0  0  0  0
 18 19  2  0  0  0  0
 19 20  1  0  0  0  0
 20 21  2  0  0  0  0
 21 22  1  0  0  0  0
  2 22  1  0  0  0  0
 22 23  2  0  0  0  0
 15 23  1  0  0  0  0
 18 23  1  0  0  0  0
M  END
> <COMPOUND_ID>
MMV676395

$$$$

  Mrv0541 04191616472D          

 34 38  0  0  0  0            999 V2000
    1.4358   -2.7631    0.0000 C   0  0  0  0  0  0  0  0  0  0  0  0
    0.8838   -2.1500    0.0000 C   0  0  0  0  0  0  0  0  0  0  0  0
    0.0768   -2.3215    0.0000 C   0  0  0  0  0  0  0  0  0  0  0  0
    1.1387   -1.3654    0.0000 N   0  0  0  0  0  0  0  0  0  0  0  0
    0.6538   -0.6979    0.0000 N   0  0  0  0  0  0  0  0  0  0  0  0
    1.1387   -0.0305    0.0000 C   0  0  0  0  0  0  0  0  0  0  0  0
    1.9233   -0.2854    0.0000 C   0  0  0  0  0  0  0  0  0  0  0  0
    2.6378    0.1271    0.0000 C   0  0  0  0  0  0  0  0  0  0  0  0
    3.3523   -0.2854    0.0000 C   0  0  0  0  0  0  0  0  0  0  0  0
    3.3523   -1.1104    0.0000 C   0  0  0  0  0  0  0  0  0  0  0  0
    2.6378   -1.5229    0.0000 N   0  0  0  0  0  0  0  0  0  0  0  0
    1.9233   -1.1104    0.0000 C   0  0  0  0  0  0  0  0  0  0  0  0
    4.0668   -1.5229    0.0000 C   0  0  0  0  0  0  0  0  0  0  0  0
    4.7812   -1.1104    0.0000 C   0  0  0  0  0  0  0  0  0  0  0  0
    5.4957   -1.5229    0.0000 C   0  0  0  0  0  0  0  0  0  0  0  0
    5.4957   -2.3479    0.0000 C   0  0  0  0  0  0  0  0  0  0  0  0
    4.7812   -2.7604    0.0000 C   0  0  0  0  0  0  0  0  0  0  0  0
    4.0668   -2.3479    0.0000 C   0  0  0  0  0  0  0  0  0  0  0  0
    2.6378    0.9521    0.0000 C   0  0  0  0  0  0  0  0  0  0  0  0
    3.3523    1.3646    0.0000 O   0  0  0  0  0  0  0  0  0  0  0  0
    1.9233    1.3646    0.0000 N   0  0  0  0  0  0  0  0  0  0  0  0
    1.9233    2.1896    0.0000 C   0  0  0  0  0  0  0  0  0  0  0  0
    1.2089    2.6021    0.0000 C   0  0  0  0  0  0  0  0  0  0  0  0
    1.2089    3.4271    0.0000 N   0  0  0  0  0  0  0  0  0  0  0  0
    0.4944    3.8396    0.0000 C   0  0  0  0  0  0  0  0  0  0  0  0
    0.4944    4.6646    0.0000 C   0  0  0  0  0  0  0  0  0  0  0  0
    1.2089    5.0771    0.0000 O   0  0  0  0  0  0  0  0  0  0  0  0
    1.9233    4.6646    0.0000 C   0  0  0  0  0  0  0  0  0  0  0  0
    1.9233    3.8396    0.0000 C   0  0  0  0  0  0  0  0  0  0  0  0
    0.4944    2.1896    0.0000 C   0  0  0  0  0  0  0  0  0  0  0  0
    0.4082    1.3691    0.0000 C   0  0  0  0  0  0  0  0  0  0  0  0
   -0.3988    1.1975    0.0000 C   0  0  0  0  0  0  0  0  0  0  0  0
   -0.8113    1.9120    0.0000 C   0  0  0  0  0  0  0  0  0  0  0  0
   -0.2593    2.5251    0.0000 S   0  0  0  0  0  0  0  0  0  0  0  0
  1  2  1  0  0  0  0
  2  3  1  0  0  0  0
  2  4  1  0  0  0  0
  4  5  1  0  0  0  0
  5  6  2  0  0  0  0
  6  7  1  0  0  0  0
  7  8  2  0  0  0  0
  8  9  1  0  0  0  0
  9 10  2  0  0  0  0
 10 11  1  0  0  0  0
 11 12  2  0  0  0  0
  4 12  1  0  0  0  0
  7 12  1  0  0  0  0
 10 13  1  0  0  0  0
 13 14  2  0  0  0  0
 14 15  1  0  0  0  0
 15 16  2  0  0  0  0
 16 17  1  0  0  0  0
 17 18  2  0  0  0  0
 13 18  1  0  0  0  0
  8 19  1  0  0  0  0
 19 20  2  0  0  0  0
 19 21  1  0  0  0  0
 21 22  1  0  0  0  0
 22 23  1  0  0  0  0
 23 24  1  0  0  0  0
 24 25  1  0  0  0  0
 25 26  1  0  0  0  0
 26 27  1  0  0  0  0
 27 28  1  0  0  0  0
 28 29  1  0  0  0  0
 24 29  1  0  0  0  0
 23 30  1  0  0  0  0
 30 31  2  0  0  0  0
 31 32  1  0  0  0  0
 32 33  2  0  0  0  0
 33 34  1  0  0  0  0
 30 34  1  0  0  0  0
M  END
> <COMPOUND_ID>
MMV676406

$$$$

  Mrv0541 04191616472D          

 28 29  0  0  0  0            999 V2000
   -1.4289   -0.0000    0.0000 C   0  0  0  0  0  0  0  0  0  0  0  0
   -0.7145   -0.4125    0.0000 C   0  0  0  0  0  0  0  0  0  0  0  0
   -0.7145   -1.2375    0.0000 O   0  0  0  0  0  0  0  0  0  0  0  0
    0.0000   -1.6500    0.0000 C   0  0  0  0  0  0  0  0  0  0  0  0
    0.7145   -1.2375    0.0000 O   0  0  0  0  0  0  0  0  0  0  0  0
    0.0000   -2.4750    0.0000 C   0  0  0  0  0  0  0  0  0  0  0  0
   -0.6674   -2.9599    0.0000 C   0  0  0  0  0  0  0  0  0  0  0  0
   -1.4521   -2.7050    0.0000 C   0  0  0  0  0  0  0  0  0  0  0  0
   -0.4125   -3.7445    0.0000 C   0  0  0  0  0  0  0  0  0  0  0  0
    0.4125   -3.7445    0.0000 S   0  0  0  0  0  0  0  0  0  0  0  0
    0.6674   -2.9599    0.0000 C   0  0  0  0  0  0  0  0  0  0  0  0
    1.4521   -2.7050    0.0000 N   0  0  0  0  0  0  0  0  0  0  0  0
    2.0652   -3.2570    0.0000 C   0  0  0  0  0  0  0  0  0  0  0  0
    1.8936   -4.0640    0.0000 O   0  0  0  0  0  0  0  0  0  0  0  0
    2.8498   -3.0021    0.0000 C   0  0  0  0  0  0  0  0  0  0  0  0
    3.0213   -2.1951    0.0000 C   0  0  0  0  0  0  0  0  0  0  0  0
    2.4082   -1.6431    0.0000 F   0  0  0  0  0  0  0  0  0  0  0  0
    3.8059   -1.9402    0.0000 C   0  0  0  0  0  0  0  0  0  0  0  0
    3.9775   -1.1332    0.0000 F   0  0  0  0  0  0  0  0  0  0  0  0
    4.4190   -2.4922    0.0000 C   0  0  0  0  0  0  0  0  0  0  0  0
    5.2036   -2.2373    0.0000 F   0  0  0  0  0  0  0  0  0  0  0  0
    4.2475   -3.2992    0.0000 C   0  0  0  0  0  0  0  0  0  0  0  0
    4.8606   -3.8512    0.0000 F   0  0  0  0  0  0  0  0  0  0  0  0
    3.4629   -3.5541    0.0000 C   0  0  0  0  0  0  0  0  0  0  0  0
    3.2913   -4.3611    0.0000 F   0  0  0  0  0  0  0  0  0  0  0  0
   -0.8974   -4.4120    0.0000 C   0  0  0  0  0  0  0  0  0  0  0  0
   -0.5619   -5.1657    0.0000 O   0  0  0  0  0  0  0  0  0  0  0  0
   -1.7179   -4.3257    0.0000 N   0  0  0  0  0  0  0  0  0  0  0  0
  1  2  1  0  0  0  0
  2  3  1  0  0  0  0
  3  4  1  0  0  0  0
  4  5  2  0  0  0  0
  4  6  1  0  0  0  0
  6  7  1  0  0  0  0
  7  8  1  0  0  0  0
  7  9  2  0  0  0  0
  9 10  1  0  0  0  0
 10 11  1  0  0  0  0
  6 11  2  0  0  0  0
 11 12  1  0  0  0  0
 12 13  1  0  0  0  0
 13 14  2  0  0  0  0
 13 15  1  0  0  0  0
 15 16  2  0  0  0  0
 16 17  1  0  0  0  0
 16 18  1  0  0  0  0
 18 19  1  0  0  0  0
 18 20  2  0  0  0  0
 20 21  1  0  0  0  0
 20 22  1  0  0  0  0
 22 23  1  0  0  0  0
 22 24  2  0  0  0  0
 15 24  1  0  0  0  0
 24 25  1  0  0  0  0
  9 26  1  0  0  0  0
 26 27  2  0  0  0  0
 26 28  1  0  0  0  0
M  END
> <COMPOUND_ID>
MMV153413

$$$$

  Mrv0541 04191616472D          

 17 17  0  0  0  0            999 V2000
    0.7145    3.7125    0.0000 N   0  0  0  0  0  0  0  0  0  0  0  0
    0.0000    3.3000    0.0000 C   0  0  0  0  0  0  0  0  0  0  0  0
    0.0000    2.4750    0.0000 C   0  0  0  0  0  0  0  0  0  0  0  0
    0.7145    2.0625    0.0000 C   0  0  0  0  0  0  0  0  0  0  0  0
    1.4289    2.4750    0.0000 O   0  0  0  0  0  0  0  0  0  0  0  0
    0.7145    1.2375    0.0000 C   0  0  0  0  0  0  0  0  0  0  0  0
    1.4289    0.8250    0.0000 C   0  0  0  0  0  0  0  0  0  0  0  0
    1.4289   -0.0000    0.0000 C   0  0  0  0  0  0  0  0  0  0  0  0
    0.7145   -0.4125    0.0000 C   0  0  0  0  0  0  0  0  0  0  0  0
    0.7145   -1.2375    0.0000 Cl  0  0  0  0  0  0  0  0  0  0  0  0
    0.0000    0.0000    0.0000 C   0  0  0  0  0  0  0  0  0  0  0  0
    0.0000    0.8250    0.0000 C   0  0  0  0  0  0  0  0  0  0  0  0
   -0.7145    1.2375    0.0000 Cl  0  0  0  0  0  0  0  0  0  0  0  0
   -0.7145    3.7125    0.0000 C   0  0  0  0  0  0  0  0  0  0  0  0
   -1.4289    4.1250    0.0000 Cl  0  0  0  0  0  0  0  0  0  0  0  0
   -0.3020    4.4270    0.0000 Cl  0  0  0  0  0  0  0  0  0  0  0  0
   -1.1270    2.9980    0.0000 Cl  0  0  0  0  0  0  0  0  0  0  0  0
  1  2  1  0  0  0  0
  2  3  1  0  0  0  0
  3  4  1  0  0  0  0
  4  5  2  0  0  0  0
  4  6  1  0  0  0  0
  6  7  2  0  0  0  0
  7  8  1  0  0  0  0
  8  9  2  0  0  0  0
  9 10  1  0  0  0  0
  9 11  1  0  0  0  0
 11 12  2  0  0  0  0
  6 12  1  0  0  0  0
 12 13  1  0  0  0  0
  2 14  1  0  0  0  0
 14 15  1  0  0  0  0
 14 16  1  0  0  0  0
 14 17  1  0  0  0  0
M  END
> <COMPOUND_ID>
MMV676468

$$$$

  Mrv0541 04191616472D          

 31 35  0  0  0  0            999 V2000
    6.3235    3.5277    0.0000 O   0  0  0  0  0  0  0  0  0  0  0  0
    7.0380    3.1152    0.0000 C   0  0  0  0  0  0  0  0  0  0  0  0
    7.0380    2.2902    0.0000 C   0  0  0  0  0  0  0  0  0  0  0  0
    7.7525    1.8777    0.0000 C   0  0  0  0  0  0  0  0  0  0  0  0
    7.7525    1.0527    0.0000 C   0  0  0  0  0  0  0  0  0  0  0  0
    7.0380    0.6402    0.0000 N   0  0  0  0  0  0  0  0  0  0  0  0
    6.3235    1.0527    0.0000 C   0  0  0  0  0  0  0  0  0  0  0  0
    6.3235    1.8777    0.0000 C   0  0  0  0  0  0  0  0  0  0  0  0
    7.0380   -0.1848    0.0000 C   0  0  0  0  0  0  0  0  0  0  0  0
    7.7054   -0.6697    0.0000 N   0  0  0  0  0  0  0  0  0  0  0  0
    7.4505   -1.4544    0.0000 N   0  0  0  0  0  0  0  0  0  0  0  0
    6.6255   -1.4544    0.0000 C   0  0  0  0  0  0  0  0  0  0  0  0
    6.3706   -0.6697    0.0000 S   0  0  0  0  0  0  0  0  0  0  0  0
    6.1406   -2.1218    0.0000 N   0  0  0  0  0  0  0  0  0  0  0  0
    6.3955   -2.9064    0.0000 C   0  0  0  0  0  0  0  0  0  0  0  0
    5.7281   -3.3913    0.0000 C   0  0  0  0  0  0  0  0  0  0  0  0
    5.0606   -2.9064    0.0000 C   0  0  0  0  0  0  0  0  0  0  0  0
    5.3156   -2.1218    0.0000 C   0  0  0  0  0  0  0  0  0  0  0  0
    7.7525    3.5277    0.0000 N   0  0  0  0  0  0  0  0  0  0  0  0
    7.7525    4.3527    0.0000 C   0  0  0  0  0  0  0  0  0  0  0  0
    8.4669    4.7652    0.0000 C   0  0  0  0  0  0  0  0  0  0  0  0
    9.1814    4.3527    0.0000 C   0  0  0  0  0  0  0  0  0  0  0  0
    9.8959    4.7652    0.0000 C   0  0  0  0  0  0  0  0  0  0  0  0
   10.6104    4.3527    0.0000 C   0  0  0  0  0  0  0  0  0  0  0  0
   11.3248    4.7652    0.0000 C   0  0  0  0  0  0  0  0  0  0  0  0
   12.0393    4.3527    0.0000 C   0  0  0  0  0  0  0  0  0  0  0  0
   12.0393    3.5277    0.0000 C   0  0  0  0  0  0  0  0  0  0  0  0
   11.3248    3.1152    0.0000 C   0  0  0  0  0  0  0  0  0  0  0  0
   10.6104    3.5277    0.0000 C   0  0  0  0  0  0  0  0  0  0  0  0
    9.1814    3.5277    0.0000 C   0  0  0  0  0  0  0  0  0  0  0  0
    8.4669    3.1152    0.0000 C   0  0  0  0  0  0  0  0  0  0  0  0
  1  2  2  0  0  0  0
  2  3  1  0  0  0  0
  3  4  1  0  0  0  0
  4  5  1  0  0  0  0
  5  6  1  0  0  0  0
  6  7  1  0  0  0  0
  7  8  1  0  0  0  0
  3  8  1  0  0  0  0
  6  9  1  0  0  0  0
  9 10  2  0  0  0  0
 10 11  1  0  0  0  0
 11 12  2  0  0  0  0
 12 13  1  0  0  0  0
  9 13  1  0  0  0  0
 12 14  1  0  0  0  0
 14 15  1  0  0  0  0
 15 16  2  0  0  0  0
 16 17  1  0  0  0  0
 17 18  2  0  0  0  0
 14 18  1  0  0  0  0
  2 19  1  0  0  0  0
 19 20  1  0  0  0  0
 20 21  1  0  0  0  0
 21 22  1  0  0  0  0
 22 23  1  0  0  0  0
 23 24  1  0  0  0  0
 24 25  2  0  0  0  0
 25 26  1  0  0  0  0
 26 27  2  0  0  0  0
 27 28  1  0  0  0  0
 28 29  2  0  0  0  0
 24 29  1  0  0  0  0
 22 30  1  0  0  0  0
 30 31  1  0  0  0  0
 19 31  1  0  0  0  0
M  END
> <COMPOUND_ID>
MMV676478

$$$$

  Mrv0541 04191616472D          

 25 27  0  0  0  0            999 V2000
    6.7325   -0.9122    0.0000 C   0  0  0  0  0  0  0  0  0  0  0  0
    7.4470   -1.3247    0.0000 C   0  0  0  0  0  0  0  0  0  0  0  0
    8.1615   -0.9122    0.0000 O   0  0  0  0  0  0  0  0  0  0  0  0
    8.8759   -1.3247    0.0000 C   0  0  0  0  0  0  0  0  0  0  0  0
    8.8759   -2.1497    0.0000 O   0  0  0  0  0  0  0  0  0  0  0  0
    9.5904   -0.9122    0.0000 N   0  0  0  0  0  0  0  0  0  0  0  0
   10.3049   -1.3247    0.0000 C   0  0  0  0  0  0  0  0  0  0  0  0
   10.3049   -2.1497    0.0000 O   0  0  0  0  0  0  0  0  0  0  0  0
   11.0194   -0.9122    0.0000 C   0  0  0  0  0  0  0  0  0  0  0  0
   11.1056   -0.0917    0.0000 C   0  0  0  0  0  0  0  0  0  0  0  0
   11.9126    0.0799    0.0000 C   0  0  0  0  0  0  0  0  0  0  0  0
   12.3251   -0.6346    0.0000 S   0  0  0  0  0  0  0  0  0  0  0  0
   11.7730   -1.2477    0.0000 C   0  0  0  0  0  0  0  0  0  0  0  0
   11.9446   -2.0547    0.0000 N   0  0  0  0  0  0  0  0  0  0  0  0
   12.7292   -2.3096    0.0000 C   0  0  0  0  0  0  0  0  0  0  0  0
   13.3423   -1.7576    0.0000 O   0  0  0  0  0  0  0  0  0  0  0  0
   12.9007   -3.1166    0.0000 C   0  0  0  0  0  0  0  0  0  0  0  0
   13.6544   -3.4522    0.0000 N   0  0  0  0  0  0  0  0  0  0  0  0
   13.5681   -4.2726    0.0000 C   0  0  0  0  0  0  0  0  0  0  0  0
   14.1202   -4.8857    0.0000 C   0  0  0  0  0  0  0  0  0  0  0  0
   13.8652   -5.6704    0.0000 C   0  0  0  0  0  0  0  0  0  0  0  0
   13.0583   -5.8419    0.0000 C   0  0  0  0  0  0  0  0  0  0  0  0
   12.5062   -5.2288    0.0000 C   0  0  0  0  0  0  0  0  0  0  0  0
   12.7612   -4.4442    0.0000 C   0  0  0  0  0  0  0  0  0  0  0  0
   12.3487   -3.7297    0.0000 S   0  0  0  0  0  0  0  0  0  0  0  0
  1  2  1  0  0  0  0
  2  3  1  0  0  0  0
  3  4  1  0  0  0  0
  4  5  2  0  0  0  0
  4  6  1  0  0  0  0
  6  7  1  0  0  0  0
  7  8  2  0  0  0  0
  7  9  1  0  0  0  0
  9 10  1  0  0  0  0
 10 11  2  0  0  0  0
 11 12  1  0  0  0  0
 12 13  1  0  0  0  0
  9 13  2  0  0  0  0
 13 14  1  0  0  0  0
 14 15  1  0  0  0  0
 15 16  2  0  0  0  0
 15 17  1  0  0  0  0
 17 18  2  0  0  0  0
 18 19  1  0  0  0  0
 19 20  2  0  0  0  0
 20 21  1  0  0  0  0
 21 22  2  0  0  0  0
 22 23  1  0  0  0  0
 23 24  2  0  0  0  0
 19 24  1  0  0  0  0
 24 25  1  0  0  0  0
 17 25  1  0  0  0  0
M  END
> <COMPOUND_ID>
MMV090930

$$$$

  Mrv0541 04191616472D          

 14 15  0  0  0  0            999 V2000
    0.6288   -2.9346    0.0000 F   0  0  0  0  0  0  0  0  0  0  0  0
    0.8838   -2.1500    0.0000 C   0  0  0  0  0  0  0  0  0  0  0  0
    1.6684   -2.4049    0.0000 F   0  0  0  0  0  0  0  0  0  0  0  0
    0.0992   -1.8951    0.0000 F   0  0  0  0  0  0  0  0  0  0  0  0
    1.1387   -1.3654    0.0000 C   0  0  0  0  0  0  0  0  0  0  0  0
    0.6538   -0.6979    0.0000 N   0  0  0  0  0  0  0  0  0  0  0  0
    1.1387   -0.0305    0.0000 N   0  0  0  0  0  0  0  0  0  0  0  0
    1.9233   -0.2854    0.0000 C   0  0  0  0  0  0  0  0  0  0  0  0
    2.6378    0.1271    0.0000 C   0  0  0  0  0  0  0  0  0  0  0  0
    3.3523   -0.2854    0.0000 C   0  0  0  0  0  0  0  0  0  0  0  0
    3.3523   -1.1104    0.0000 C   0  0  0  0  0  0  0  0  0  0  0  0
    4.0668   -1.5229    0.0000 Cl  0  0  0  0  0  0  0  0  0  0  0  0
    2.6378   -1.5229    0.0000 N   0  0  0  0  0  0  0  0  0  0  0  0
    1.9233   -1.1104    0.0000 N   0  0  0  0  0  0  0  0  0  0  0  0
  1  2  1  0  0  0  0
  2  3  1  0  0  0  0
  2  4  1  0  0  0  0
  2  5  1  0  0  0  0
  5  6  2  0  0  0  0
  6  7  1  0  0  0  0
  7  8  2  0  0  0  0
  8  9  1  0  0  0  0
  9 10  2  0  0  0  0
 10 11  1  0  0  0  0
 11 12  1  0  0  0  0
 11 13  2  0  0  0  0
 13 14  1  0  0  0  0
  5 14  1  0  0  0  0
  8 14  1  0  0  0  0
M  END
> <COMPOUND_ID>
MMV069458

$$$$

  Mrv0541 04191616472D          

 25 28  0  0  0  0            999 V2000
    0.0000    0.8250    0.0000 O   0  0  0  0  0  0  0  0  0  0  0  0
    0.0000    0.0000    0.0000 C   0  0  0  0  0  0  0  0  0  0  0  0
   -0.7145   -0.4125    0.0000 N   0  0  0  0  0  0  0  0  0  0  0  0
   -1.4289    0.0000    0.0000 C   0  0  0  0  0  0  0  0  0  0  0  0
   -2.1434   -0.4125    0.0000 C   0  0  0  0  0  0  0  0  0  0  0  0
   -2.8579    0.0000    0.0000 C   0  0  0  0  0  0  0  0  0  0  0  0
   -3.6116   -0.3356    0.0000 C   0  0  0  0  0  0  0  0  0  0  0  0
   -4.1636    0.2775    0.0000 N   0  0  0  0  0  0  0  0  0  0  0  0
   -3.7511    0.9920    0.0000 C   0  0  0  0  0  0  0  0  0  0  0  0
   -4.0060    1.7766    0.0000 C   0  0  0  0  0  0  0  0  0  0  0  0
   -3.4540    2.3897    0.0000 C   0  0  0  0  0  0  0  0  0  0  0  0
   -2.6470    2.2182    0.0000 C   0  0  0  0  0  0  0  0  0  0  0  0
   -2.3921    1.4336    0.0000 C   0  0  0  0  0  0  0  0  0  0  0  0
   -2.9441    0.8205    0.0000 C   0  0  0  0  0  0  0  0  0  0  0  0
    0.7145   -0.4125    0.0000 C   0  0  0  0  0  0  0  0  0  0  0  0
    1.4289    0.0000    0.0000 C   0  0  0  0  0  0  0  0  0  0  0  0
    2.1434   -0.4125    0.0000 C   0  0  0  0  0  0  0  0  0  0  0  0
    2.8579    0.0000    0.0000 C   0  0  0  0  0  0  0  0  0  0  0  0
    3.5724   -0.4125    0.0000 C   0  0  0  0  0  0  0  0  0  0  0  0
    3.5724   -1.2375    0.0000 C   0  0  0  0  0  0  0  0  0  0  0  0
    2.8579   -1.6500    0.0000 C   0  0  0  0  0  0  0  0  0  0  0  0
    2.1434   -1.2375    0.0000 C   0  0  0  0  0  0  0  0  0  0  0  0
    1.4289   -1.6500    0.0000 O   0  0  0  0  0  0  0  0  0  0  0  0
    0.7145   -1.2375    0.0000 C   0  0  0  0  0  0  0  0  0  0  0  0
    0.0000   -1.6500    0.0000 O   0  0  0  0  0  0  0  0  0  0  0  0
  1  2  2  0  0  0  0
  2  3  1  0  0  0  0
  3  4  1  0  0  0  0
  4  5  1  0  0  0  0
  5  6  1  0  0  0  0
  6  7  2  0  0  0  0
  7  8  1  0  0  0  0
  8  9  1  0  0  0  0
  9 10  2  0  0  0  0
 10 11  1  0  0  0  0
 11 12  2  0  0  0  0
 12 13  1  0  0  0  0
 13 14  2  0  0  0  0
  6 14  1  0  0  0  0
  9 14  1  0  0  0  0
  2 15  1  0  0  0  0
 15 16  2  0  0  0  0
 16 17  1  0  0  0  0
 17 18  2  0  0  0  0
 18 19  1  0  0  0  0
 19 20  2  0  0  0  0
 20 21  1  0  0  0  0
 21 22  2  0  0  0  0
 17 22  1  0  0  0  0
 22 23  1  0  0  0  0
 23 24  1  0  0  0  0
 15 24  1  0  0  0  0
 24 25  2  0  0  0  0
M  END
> <COMPOUND_ID>
MMV676539

$$$$

  Mrv0541 04191616472D          

 32 35  0  0  0  0            999 V2000
    4.1801    2.2902    0.0000 C   0  0  0  0  0  0  0  0  0  0  0  0
    4.8946    1.8777    0.0000 O   0  0  0  0  0  0  0  0  0  0  0  0
    4.8946    1.0527    0.0000 C   0  0  0  0  0  0  0  0  0  0  0  0
    5.6091    0.6402    0.0000 C   0  0  0  0  0  0  0  0  0  0  0  0
    5.6091   -0.1848    0.0000 C   0  0  0  0  0  0  0  0  0  0  0  0
    4.8946   -0.5973    0.0000 C   0  0  0  0  0  0  0  0  0  0  0  0
    4.1801   -0.1848    0.0000 C   0  0  0  0  0  0  0  0  0  0  0  0
    4.1801    0.6402    0.0000 C   0  0  0  0  0  0  0  0  0  0  0  0
    3.4656    1.0527    0.0000 O   0  0  0  0  0  0  0  0  0  0  0  0
    3.4656    1.8777    0.0000 C   0  0  0  0  0  0  0  0  0  0  0  0
    4.8946   -1.4223    0.0000 C   0  0  0  0  0  0  0  0  0  0  0  0
    5.5620   -1.9072    0.0000 O   0  0  0  0  0  0  0  0  0  0  0  0
    5.3071   -2.6919    0.0000 N   0  0  0  0  0  0  0  0  0  0  0  0
    4.4821   -2.6919    0.0000 C   0  0  0  0  0  0  0  0  0  0  0  0
    4.2272   -1.9072    0.0000 N   0  0  0  0  0  0  0  0  0  0  0  0
    3.9972   -3.3593    0.0000 C   0  0  0  0  0  0  0  0  0  0  0  0
    4.3327   -4.1130    0.0000 C   0  0  0  0  0  0  0  0  0  0  0  0
    3.8478   -4.7804    0.0000 C   0  0  0  0  0  0  0  0  0  0  0  0
    3.0273   -4.6942    0.0000 C   0  0  0  0  0  0  0  0  0  0  0  0
    2.6918   -3.9405    0.0000 C   0  0  0  0  0  0  0  0  0  0  0  0
    1.8713   -3.8543    0.0000 N   0  0  0  0  0  0  0  0  0  0  0  0
    1.5357   -3.1006    0.0000 C   0  0  0  0  0  0  0  0  0  0  0  0
    2.0206   -2.4332    0.0000 O   0  0  0  0  0  0  0  0  0  0  0  0
    0.7152   -3.0144    0.0000 C   0  0  0  0  0  0  0  0  0  0  0  0
    0.3797   -2.2607    0.0000 C   0  0  0  0  0  0  0  0  0  0  0  0
   -0.4408   -2.1744    0.0000 C   0  0  0  0  0  0  0  0  0  0  0  0
   -0.7764   -1.4208    0.0000 C   0  0  0  0  0  0  0  0  0  0  0  0
   -0.2914   -0.7533    0.0000 C   0  0  0  0  0  0  0  0  0  0  0  0
   -0.6270    0.0003    0.0000 F   0  0  0  0  0  0  0  0  0  0  0  0
    0.5291   -0.8396    0.0000 C   0  0  0  0  0  0  0  0  0  0  0  0
    0.8646   -1.5932    0.0000 C   0  0  0  0  0  0  0  0  0  0  0  0
    3.1767   -3.2731    0.0000 C   0  0  0  0  0  0  0  0  0  0  0  0
  1  2  1  0  0  0  0
  2  3  1  0  0  0  0
  3  4  2  0  0  0  0
  4  5  1  0  0  0  0
  5  6  2  0  0  0  0
  6  7  1  0  0  0  0
  7  8  2  0  0  0  0
  3  8  1  0  0  0  0
  8  9  1  0  0  0  0
  9 10  1  0  0  0  0
  6 11  1  0  0  0  0
 11 12  1  0  0  0  0
 12 13  1  0  0  0  0
 13 14  2  0  0  0  0
 14 15  1  0  0  0  0
 11 15  2  0  0  0  0
 14 16  1  0  0  0  0
 16 17  2  0  0  0  0
 17 18  1  0  0  0  0
 18 19  2  0  0  0  0
 19 20  1  0  0  0  0
 20 21  1  0  0  0  0
 21 22  1  0  0  0  0
 22 23  2  0  0  0  0
 22 24  1  0  0  0  0
 24 25  1  0  0  0  0
 25 26  2  0  0  0  0
 26 27  1  0  0  0  0
 27 28  2  0  0  0  0
 28 29  1  0  0  0  0
 28 30  1  0  0  0  0
 30 31  2  0  0  0  0
 25 31  1  0  0  0  0
 20 32  2  0  0  0  0
 16 32  1  0  0  0  0
M  END
> <COMPOUND_ID>
MMV676571

$$$$

  Mrv0541 04191616472D          

 27 30  0  0  0  0            999 V2000
    2.0367    6.0027    0.0000 O   0  0  0  0  0  0  0  0  0  0  0  0
    1.3222    5.5902    0.0000 C   0  0  0  0  0  0  0  0  0  0  0  0
    0.6078    6.0027    0.0000 C   0  0  0  0  0  0  0  0  0  0  0  0
    0.6078    6.8277    0.0000 C   0  0  0  0  0  0  0  0  0  0  0  0
   -0.1067    7.2402    0.0000 C   0  0  0  0  0  0  0  0  0  0  0  0
   -0.8212    6.8277    0.0000 C   0  0  0  0  0  0  0  0  0  0  0  0
   -1.5356    7.2402    0.0000 C   0  0  0  0  0  0  0  0  0  0  0  0
   -1.5356    8.0652    0.0000 C   0  0  0  0  0  0  0  0  0  0  0  0
   -0.8212    8.4777    0.0000 C   0  0  0  0  0  0  0  0  0  0  0  0
   -0.1067    8.0652    0.0000 C   0  0  0  0  0  0  0  0  0  0  0  0
    1.3222    4.7652    0.0000 N   0  0  0  0  0  0  0  0  0  0  0  0
    2.0367    4.3527    0.0000 C   0  0  0  0  0  0  0  0  0  0  0  0
    2.7512    4.7652    0.0000 C   0  0  0  0  0  0  0  0  0  0  0  0
    3.4656    4.3527    0.0000 C   0  0  0  0  0  0  0  0  0  0  0  0
    3.4656    3.5277    0.0000 C   0  0  0  0  0  0  0  0  0  0  0  0
    2.7512    3.1152    0.0000 C   0  0  0  0  0  0  0  0  0  0  0  0
    2.0367    3.5277    0.0000 C   0  0  0  0  0  0  0  0  0  0  0  0
    2.7512    2.2902    0.0000 C   0  0  0  0  0  0  0  0  0  0  0  0
    3.4186    1.8053    0.0000 O   0  0  0  0  0  0  0  0  0  0  0  0
    3.1637    1.0206    0.0000 C   0  0  0  0  0  0  0  0  0  0  0  0
    2.3387    1.0206    0.0000 N   0  0  0  0  0  0  0  0  0  0  0  0
    2.0837    1.8053    0.0000 N   0  0  0  0  0  0  0  0  0  0  0  0
    3.6486    0.3532    0.0000 C   0  0  0  0  0  0  0  0  0  0  0  0
    4.4736    0.3532    0.0000 O   0  0  0  0  0  0  0  0  0  0  0  0
    4.7285   -0.4314    0.0000 C   0  0  0  0  0  0  0  0  0  0  0  0
    4.0611   -0.9163    0.0000 C   0  0  0  0  0  0  0  0  0  0  0  0
    3.3937   -0.4314    0.0000 C   0  0  0  0  0  0  0  0  0  0  0  0
  1  2  2  0  0  0  0
  2  3  1  0  0  0  0
  3  4  1  0  0  0  0
  4  5  1  0  0  0  0
  5  6  1  0  0  0  0
  6  7  1  0  0  0  0
  7  8  1  0  0  0  0
  8  9  1  0  0  0  0
  9 10  1  0  0  0  0
  5 10  1  0  0  0  0
  2 11  1  0  0  0  0
 11 12  1  0  0  0  0
 12 13  2  0  0  0  0
 13 14  1  0  0  0  0
 14 15  2  0  0  0  0
 15 16  1  0  0  0  0
 16 17  2  0  0  0  0
 12 17  1  0  0  0  0
 16 18  1  0  0  0  0
 18 19  1  0  0  0  0
 19 20  1  0  0  0  0
 20 21  2  0  0  0  0
 21 22  1  0  0  0  0
 18 22  2  0  0  0  0
 20 23  1  0  0  0  0
 23 24  1  0  0  0  0
 24 25  1  0  0  0  0
 25 26  2  0  0  0  0
 26 27  1  0  0  0  0
 23 27  2  0  0  0  0
M  END
> <COMPOUND_ID>
MMV676589

$$$$

  Mrv0541 04191616472D          

 29 32  0  0  0  0            999 V2000
   -2.6577   -4.2207    0.0000 C   0  0  0  0  0  0  0  0  0  0  0  0
   -2.3221   -3.4670    0.0000 C   0  0  0  0  0  0  0  0  0  0  0  0
   -2.7346   -2.7525    0.0000 C   0  0  0  0  0  0  0  0  0  0  0  0
   -2.1826   -2.1394    0.0000 O   0  0  0  0  0  0  0  0  0  0  0  0
   -1.4289   -2.4750    0.0000 C   0  0  0  0  0  0  0  0  0  0  0  0
   -1.4289   -1.6500    0.0000 C   0  0  0  0  0  0  0  0  0  0  0  0
   -0.7145   -1.2375    0.0000 C   0  0  0  0  0  0  0  0  0  0  0  0
    0.0000   -1.6500    0.0000 N   0  0  0  0  0  0  0  0  0  0  0  0
    0.0000   -2.4750    0.0000 C   0  0  0  0  0  0  0  0  0  0  0  0
   -0.7145   -2.8875    0.0000 C   0  0  0  0  0  0  0  0  0  0  0  0
    0.7145   -1.2375    0.0000 C   0  0  0  0  0  0  0  0  0  0  0  0
    0.7145   -0.4125    0.0000 N   0  0  0  0  0  0  0  0  0  0  0  0
    1.4289    0.0000    0.0000 C   0  0  0  0  0  0  0  0  0  0  0  0
    1.4289    0.8250    0.0000 O   0  0  0  0  0  0  0  0  0  0  0  0
    2.1434   -0.4125    0.0000 C   0  0  0  0  0  0  0  0  0  0  0  0
    2.8579    0.0000    0.0000 C   0  0  0  0  0  0  0  0  0  0  0  0
    3.5724   -0.4125    0.0000 C   0  0  0  0  0  0  0  0  0  0  0  0
    3.5724   -1.2375    0.0000 C   0  0  0  0  0  0  0  0  0  0  0  0
    2.8579   -1.6500    0.0000 C   0  0  0  0  0  0  0  0  0  0  0  0
    2.1434   -1.2375    0.0000 C   0  0  0  0  0  0  0  0  0  0  0  0
    1.4289   -1.6500    0.0000 S   0  0  0  0  0  0  0  0  0  0  0  0
    2.8579   -2.4750    0.0000 N   0  3  0  0  0  0  0  0  0  0  0  0
    2.1434   -2.8875    0.0000 O   0  0  0  0  0  0  0  0  0  0  0  0
    3.5724   -2.8875    0.0000 O   0  5  0  0  0  0  0  0  0  0  0  0
    4.2868   -0.0000    0.0000 C   0  0  0  0  0  0  0  0  0  0  0  0
    5.0013    0.4125    0.0000 F   0  0  0  0  0  0  0  0  0  0  0  0
    4.6993   -0.7145    0.0000 F   0  0  0  0  0  0  0  0  0  0  0  0
    3.8743    0.7145    0.0000 F   0  0  0  0  0  0  0  0  0  0  0  0
   -1.5152   -3.2955    0.0000 O   0  0  0  0  0  0  0  0  0  0  0  0
  1  2  1  0  0  0  0
  2  3  1  0  0  0  0
  3  4  1  0  0  0  0
  4  5  1  0  0  0  0
  5  6  1  0  0  0  0
  6  7  1  0  0  0  0
  7  8  1  0  0  0  0
  8  9  1  0  0  0  0
  9 10  1  0  0  0  0
  5 10  1  0  0  0  0
  8 11  1  0  0  0  0
 11 12  2  0  0  0  0
 12 13  1  0  0  0  0
 13 14  2  0  0  0  0
 13 15  1  0  0  0  0
 15 16  2  0  0  0  0
 16 17  1  0  0  0  0
 17 18  2  0  0  0  0
 18 19  1  0  0  0  0
 19 20  2  0  0  0  0
 15 20  1  0  0  0  0
 20 21  1  0  0  0  0
 11 21  1  0  0  0  0
 19 22  1  0  0  0  0
 22 23  2  0  0  0  0
 22 24  1  0  0  0  0
 17 25  1  0  0  0  0
 25 26  1  0  0  0  0
 25 27  1  0  0  0  0
 25 28  1  0  0  0  0
  5 29  1  0  0  0  0
  2 29  1  0  0  0  0
M  CHG  2  22   1  24  -1
M  END
> <COMPOUND_ID>
MMV676603

$$$$

  Mrv0541 04191616472D          

 18 19  0  0  0  0            999 V2000
    5.4957    5.6479    0.0000 C   0  0  0  0  0  0  0  0  0  0  0  0
    4.7812    5.2354    0.0000 C   0  0  0  0  0  0  0  0  0  0  0  0
    4.7812    4.4104    0.0000 C   0  0  0  0  0  0  0  0  0  0  0  0
    4.0668    3.9979    0.0000 C   0  0  0  0  0  0  0  0  0  0  0  0
    4.0668    3.1729    0.0000 S   0  0  0  0  0  0  0  0  0  0  0  0
    3.2418    3.1729    0.0000 O   0  0  0  0  0  0  0  0  0  0  0  0
    4.8918    3.1729    0.0000 O   0  0  0  0  0  0  0  0  0  0  0  0
    4.0668    2.3479    0.0000 N   0  0  0  0  0  0  0  0  0  0  0  0
    3.3523    1.9354    0.0000 C   0  0  0  0  0  0  0  0  0  0  0  0
    3.3523    1.1104    0.0000 C   0  0  0  0  0  0  0  0  0  0  0  0
    2.6378    0.6979    0.0000 C   0  0  0  0  0  0  0  0  0  0  0  0
    1.9233    1.1104    0.0000 C   0  0  0  0  0  0  0  0  0  0  0  0
    1.1387    0.8555    0.0000 C   0  0  0  0  0  0  0  0  0  0  0  0
    0.6538    1.5229    0.0000 N   0  0  0  0  0  0  0  0  0  0  0  0
    1.1387    2.1904    0.0000 N   0  0  0  0  0  0  0  0  0  0  0  0
    0.8838    2.9750    0.0000 C   0  0  0  0  0  0  0  0  0  0  0  0
    1.9233    1.9354    0.0000 C   0  0  0  0  0  0  0  0  0  0  0  0
    2.6378    2.3479    0.0000 C   0  0  0  0  0  0  0  0  0  0  0  0
  1  2  1  0  0  0  0
  2  3  1  0  0  0  0
  3  4  1  0  0  0  0
  4  5  1  0  0  0  0
  5  6  2  0  0  0  0
  5  7  2  0  0  0  0
  5  8  1  0  0  0  0
  8  9  1  0  0  0  0
  9 10  2  0  0  0  0
 10 11  1  0  0  0  0
 11 12  2  0  0  0  0
 12 13  1  0  0  0  0
 13 14  2  0  0  0  0
 14 15  1  0  0  0  0
 15 16  1  0  0  0  0
 15 17  1  0  0  0  0
 12 17  1  0  0  0  0
 17 18  2  0  0  0  0
  9 18  1  0  0  0  0
M  END
> <COMPOUND_ID>
MMV687145

$$$$

  Mrv0541 04191616472D          

 22 24  0  0  0  0            999 V2000
    4.0668    2.3479    0.0000 C   0  0  0  0  0  0  0  0  0  0  0  0
    3.3523    1.9354    0.0000 C   0  0  0  0  0  0  0  0  0  0  0  0
    3.3523    1.1104    0.0000 C   0  0  0  0  0  0  0  0  0  0  0  0
    2.6378    0.6979    0.0000 C   0  0  0  0  0  0  0  0  0  0  0  0
    2.6378   -0.1271    0.0000 C   0  0  0  0  0  0  0  0  0  0  0  0
    1.9233    1.1104    0.0000 C   0  0  0  0  0  0  0  0  0  0  0  0
    1.1387    0.8555    0.0000 C   0  0  0  0  0  0  0  0  0  0  0  0
    0.6538    1.5229    0.0000 C   0  0  0  0  0  0  0  0  0  0  0  0
    1.1387    2.1904    0.0000 N   0  0  0  0  0  0  0  0  0  0  0  0
    1.9233    1.9354    0.0000 C   0  0  0  0  0  0  0  0  0  0  0  0
    2.6378    2.3479    0.0000 C   0  0  0  0  0  0  0  0  0  0  0  0
   -0.1712    1.5229    0.0000 C   0  0  0  0  0  0  0  0  0  0  0  0
   -0.5837    2.2374    0.0000 O   0  0  0  0  0  0  0  0  0  0  0  0
   -0.5837    0.8085    0.0000 N   0  0  0  0  0  0  0  0  0  0  0  0
   -1.4087    0.8085    0.0000 C   0  0  0  0  0  0  0  0  0  0  0  0
   -1.7244    0.0463    0.0000 C   0  0  0  0  0  0  0  0  0  0  0  0
   -2.4866   -0.2694    0.0000 C   0  0  0  0  0  0  0  0  0  0  0  0
   -3.2488    0.0463    0.0000 C   0  0  0  0  0  0  0  0  0  0  0  0
   -3.5645    0.8085    0.0000 C   0  0  0  0  0  0  0  0  0  0  0  0
   -3.2488    1.5707    0.0000 C   0  0  0  0  0  0  0  0  0  0  0  0
   -2.4866    1.8864    0.0000 C   0  0  0  0  0  0  0  0  0  0  0  0
   -1.7244    1.5707    0.0000 C   0  0  0  0  0  0  0  0  0  0  0  0
  1  2  1  0  0  0  0
  2  3  2  0  0  0  0
  3  4  1  0  0  0  0
  4  5  1  0  0  0  0
  4  6  2  0  0  0  0
  6  7  1  0  0  0  0
  7  8  2  0  0  0  0
  8  9  1  0  0  0  0
  9 10  1  0  0  0  0
  6 10  1  0  0  0  0
 10 11  2  0  0  0  0
  2 11  1  0  0  0  0
  8 12  1  0  0  0  0
 12 13  2  0  0  0  0
 12 14  1  0  0  0  0
 14 15  1  0  0  0  0
 15 16  1  0  0  0  0
 16 17  1  0  0  0  0
 17 18  1  0  0  0  0
 18 19  1  0  0  0  0
 19 20  1  0  0  0  0
 20 21  1  0  0  0  0
 21 22  1  0  0  0  0
 15 22  1  0  0  0  0
M  END
> <COMPOUND_ID>
MMV687146

$$$$

  Mrv0541 04191616472D          

 29 33  0  0  0  0            999 V2000
   -0.7145   -1.2375    0.0000 O   0  0  0  0  0  0  0  0  0  0  0  0
    0.0000   -1.6500    0.0000 C   0  0  0  0  0  0  0  0  0  0  0  0
    0.0000   -2.4750    0.0000 C   0  0  0  0  0  0  0  0  0  0  0  0
    0.7145   -2.8875    0.0000 C   0  0  0  0  0  0  0  0  0  0  0  0
    0.7145   -3.7125    0.0000 C   0  0  0  0  0  0  0  0  0  0  0  0
    0.0000   -4.1250    0.0000 N   0  0  0  0  0  0  0  0  0  0  0  0
   -0.7145   -3.7125    0.0000 C   0  0  0  0  0  0  0  0  0  0  0  0
   -0.7145   -2.8875    0.0000 C   0  0  0  0  0  0  0  0  0  0  0  0
    0.0000   -4.9500    0.0000 C   0  0  0  0  0  0  0  0  0  0  0  0
    0.7145   -5.3625    0.0000 C   0  0  0  0  0  0  0  0  0  0  0  0
    0.7145   -6.1875    0.0000 C   0  0  0  0  0  0  0  0  0  0  0  0
    0.0000   -6.6000    0.0000 N   0  0  0  0  0  0  0  0  0  0  0  0
   -0.7145   -6.1875    0.0000 C   0  0  0  0  0  0  0  0  0  0  0  0
   -0.7145   -5.3625    0.0000 N   0  0  0  0  0  0  0  0  0  0  0  0
    1.4289   -6.6000    0.0000 N   0  0  0  0  0  0  0  0  0  0  0  0
    2.1826   -6.2644    0.0000 C   0  0  0  0  0  0  0  0  0  0  0  0
    2.7346   -6.8775    0.0000 C   0  0  0  0  0  0  0  0  0  0  0  0
    2.3221   -7.5920    0.0000 C   0  0  0  0  0  0  0  0  0  0  0  0
    1.5152   -7.4205    0.0000 C   0  0  0  0  0  0  0  0  0  0  0  0
    0.7145   -1.2375    0.0000 N   0  0  0  0  0  0  0  0  0  0  0  0
    0.7145   -0.4125    0.0000 C   0  0  0  0  0  0  0  0  0  0  0  0
    1.4289    0.0000    0.0000 C   0  0  0  0  0  0  0  0  0  0  0  0
    2.1434   -0.4125    0.0000 C   0  0  0  0  0  0  0  0  0  0  0  0
    2.8579    0.0000    0.0000 C   0  0  0  0  0  0  0  0  0  0  0  0
    3.5724   -0.4125    0.0000 C   0  0  0  0  0  0  0  0  0  0  0  0
    3.5724   -1.2375    0.0000 C   0  0  0  0  0  0  0  0  0  0  0  0
    2.8579   -1.6500    0.0000 C   0  0  0  0  0  0  0  0  0  0  0  0
    2.1434   -1.2375    0.0000 C   0  0  0  0  0  0  0  0  0  0  0  0
    1.4289   -1.6500    0.0000 C   0  0  0  0  0  0  0  0  0  0  0  0
  1  2  2  0  0  0  0
  2  3  1  0  0  0  0
  3  4  1  0  0  0  0
  4  5  1  0  0  0  0
  5  6  1  0  0  0  0
  6  7  1  0  0  0  0
  7  8  1  0  0  0  0
  3  8  1  0  0  0  0
  6  9  1  0  0  0  0
  9 10  2  0  0  0  0
 10 11  1  0  0  0  0
 11 12  2  0  0  0  0
 12 13  1  0  0  0  0
 13 14  2  0  0  0  0
  9 14  1  0  0  0  0
 11 15  1  0  0  0  0
 15 16  1  0  0  0  0
 16 17  2  0  0  0  0
 17 18  1  0  0  0  0
 18 19  2  0  0  0  0
 15 19  1  0  0  0  0
  2 20  1  0  0  0  0
 20 21  1  0  0  0  0
 21 22  1  0  0  0  0
 22 23  1  0  0  0  0
 23 24  2  0  0  0  0
 24 25  1  0  0  0  0
 25 26  2  0  0  0  0
 26 27  1  0  0  0  0
 27 28  2  0  0  0  0
 23 28  1  0  0  0  0
 28 29  1  0  0  0  0
 20 29  1  0  0  0  0
M  END
> <COMPOUND_ID>
MMV687172

$$$$

  Mrv0541 04191616472D          

 33 36  0  0  1  0            999 V2000
    6.2102    4.4104    0.0000 C   0  0  0  0  0  0  0  0  0  0  0  0
    6.2102    3.5854    0.0000 C   0  0  0  0  0  0  0  0  0  0  0  0
    5.4957    3.1729    0.0000 C   0  0  0  0  0  0  0  0  0  0  0  0
    5.4957    2.3479    0.0000 C   0  0  0  0  0  0  0  0  0  0  0  0
    4.7812    1.9354    0.0000 C   0  0  0  0  0  0  0  0  0  0  0  0
    4.0668    2.3479    0.0000 C   0  0  0  0  0  0  0  0  0  0  0  0
    4.0668    3.1729    0.0000 C   0  0  0  0  0  0  0  0  0  0  0  0
    4.7812    3.5854    0.0000 C   0  0  0  0  0  0  0  0  0  0  0  0
    3.3523    1.9354    0.0000 C   0  0  2  0  0  0  0  0  0  0  0  0
    3.3523    1.1104    0.0000 C   0  0  0  0  0  0  0  0  0  0  0  0
    2.6378    0.6979    0.0000 C   0  0  1  0  0  0  0  0  0  0  0  0
    1.9233    1.1104    0.0000 N   0  0  0  0  0  0  0  0  0  0  0  0
    1.1387    0.8555    0.0000 N   0  0  0  0  0  0  0  0  0  0  0  0
    0.6538    1.5229    0.0000 C   0  0  0  0  0  0  0  0  0  0  0  0
    1.1387    2.1904    0.0000 C   0  0  0  0  0  0  0  0  0  0  0  0
    0.8838    2.9750    0.0000 C   0  0  0  0  0  0  0  0  0  0  0  0
    0.0768    3.1465    0.0000 O   0  0  0  0  0  0  0  0  0  0  0  0
    1.4358    3.5881    0.0000 N   0  0  0  0  0  0  0  0  0  0  0  0
    1.1809    4.3727    0.0000 C   0  0  0  0  0  0  0  0  0  0  0  0
    0.3739    4.5442    0.0000 C   0  0  0  0  0  0  0  0  0  0  0  0
   -0.1781    3.9312    0.0000 C   0  0  0  0  0  0  0  0  0  0  0  0
   -0.9851    4.1027    0.0000 C   0  0  0  0  0  0  0  0  0  0  0  0
   -1.2400    4.8873    0.0000 C   0  0  0  0  0  0  0  0  0  0  0  0
   -2.0470    5.0588    0.0000 O   0  0  0  0  0  0  0  0  0  0  0  0
   -2.5990    4.4457    0.0000 C   0  0  0  0  0  0  0  0  0  0  0  0
   -0.6880    5.5004    0.0000 C   0  0  0  0  0  0  0  0  0  0  0  0
    0.1190    5.3289    0.0000 C   0  0  0  0  0  0  0  0  0  0  0  0
    1.9233    1.9354    0.0000 C   0  0  0  0  0  0  0  0  0  0  0  0
    2.6378    2.3479    0.0000 N   0  0  0  0  0  0  0  0  0  0  0  0
    2.6378   -0.1271    0.0000 C   0  0  0  0  0  0  0  0  0  0  0  0
    2.6378   -0.9521    0.0000 F   0  0  0  0  0  0  0  0  0  0  0  0
    1.8128   -0.1271    0.0000 F   0  0  0  0  0  0  0  0  0  0  0  0
    3.4628   -0.1271    0.0000 F   0  0  0  0  0  0  0  0  0  0  0  0
  1  2  1  0  0  0  0
  2  3  1  0  0  0  0
  3  4  2  0  0  0  0
  4  5  1  0  0  0  0
  5  6  2  0  0  0  0
  6  7  1  0  0  0  0
  7  8  2  0  0  0  0
  3  8  1  0  0  0  0
  9  6  1  6  0  0  0
  9 10  1  0  0  0  0
 10 11  1  0  0  0  0
 11 12  1  0  0  0  0
 12 13  1  0  0  0  0
 13 14  2  0  0  0  0
 14 15  1  0  0  0  0
 15 16  1  0  0  0  0
 16 17  2  0  0  0  0
 16 18  1  0  0  0  0
 18 19  1  0  0  0  0
 19 20  1  0  0  0  0
 20 21  2  0  0  0  0
 21 22  1  0  0  0  0
 22 23  2  0  0  0  0
 23 24  1  0  0  0  0
 24 25  1  0  0  0  0
 23 26  1  0  0  0  0
 26 27  2  0  0  0  0
 20 27  1  0  0  0  0
 15 28  2  0  0  0  0
 12 28  1  0  0  0  0
 28 29  1  0  0  0  0
  9 29  1  0  0  0  0
 11 30  1  6  0  0  0
 30 31  1  0  0  0  0
 30 32  1  0  0  0  0
 30 33  1  0  0  0  0
M  END
> <COMPOUND_ID>
MMV687180

$$$$

  Mrv0541 04191616472D          

 25 27  0  0  0  0            999 V2000
   -0.1105   -0.4125    0.0000 C   0  0  0  0  0  0  0  0  0  0  0  0
    0.7145   -0.4125    0.0000 C   0  0  0  0  0  0  0  0  0  0  0  0
    1.5395   -0.4125    0.0000 C   0  0  0  0  0  0  0  0  0  0  0  0
    0.7145    0.4125    0.0000 C   0  0  0  0  0  0  0  0  0  0  0  0
    1.4289    0.8250    0.0000 O   0  0  0  0  0  0  0  0  0  0  0  0
    0.0000    0.8250    0.0000 N   0  0  0  0  0  0  0  0  0  0  0  0
    0.0000    1.6500    0.0000 C   0  0  0  0  0  0  0  0  0  0  0  0
   -0.7145    2.0625    0.0000 C   0  0  0  0  0  0  0  0  0  0  0  0
   -0.7145    2.8875    0.0000 C   0  0  0  0  0  0  0  0  0  0  0  0
    0.0000    3.3000    0.0000 C   0  0  0  0  0  0  0  0  0  0  0  0
    0.0000    4.1250    0.0000 F   0  0  0  0  0  0  0  0  0  0  0  0
    0.7145    2.8875    0.0000 C   0  0  0  0  0  0  0  0  0  0  0  0
    0.7145    2.0625    0.0000 C   0  0  0  0  0  0  0  0  0  0  0  0
    0.7145   -1.2375    0.0000 N   0  0  0  0  0  0  0  0  0  0  0  0
    1.3819   -1.7224    0.0000 C   0  0  0  0  0  0  0  0  0  0  0  0
    1.1270   -2.5070    0.0000 C   0  0  0  0  0  0  0  0  0  0  0  0
    0.3020   -2.5070    0.0000 C   0  0  0  0  0  0  0  0  0  0  0  0
    0.0470   -1.7224    0.0000 N   0  0  0  0  0  0  0  0  0  0  0  0
    1.6119   -3.1745    0.0000 C   0  0  0  0  0  0  0  0  0  0  0  0
    2.4324   -3.0882    0.0000 C   0  0  0  0  0  0  0  0  0  0  0  0
    2.9173   -3.7557    0.0000 C   0  0  0  0  0  0  0  0  0  0  0  0
    2.5817   -4.5094    0.0000 C   0  0  0  0  0  0  0  0  0  0  0  0
    1.7613   -4.5956    0.0000 C   0  0  0  0  0  0  0  0  0  0  0  0
    1.2763   -3.9282    0.0000 C   0  0  0  0  0  0  0  0  0  0  0  0
    0.4559   -4.0144    0.0000 F   0  0  0  0  0  0  0  0  0  0  0  0
  1  2  1  0  0  0  0
  2  3  1  0  0  0  0
  2  4  1  0  0  0  0
  4  5  2  0  0  0  0
  4  6  1  0  0  0  0
  6  7  1  0  0  0  0
  7  8  2  0  0  0  0
  8  9  1  0  0  0  0
  9 10  2  0  0  0  0
 10 11  1  0  0  0  0
 10 12  1  0  0  0  0
 12 13  2  0  0  0  0
  7 13  1  0  0  0  0
  2 14  1  0  0  0  0
 14 15  1  0  0  0  0
 15 16  2  0  0  0  0
 16 17  1  0  0  0  0
 17 18  2  0  0  0  0
 14 18  1  0  0  0  0
 16 19  1  0  0  0  0
 19 20  2  0  0  0  0
 20 21  1  0  0  0  0
 21 22  2  0  0  0  0
 22 23  1  0  0  0  0
 23 24  2  0  0  0  0
 19 24  1  0  0  0  0
 24 25  1  0  0  0  0
M  END
> <COMPOUND_ID>
MMV687239

$$$$

  Mrv0541 04191616472D          

 39 43  0  0  0  0            999 V2000
   -0.5837   -1.4124    0.0000 C   0  0  0  0  0  0  0  0  0  0  0  0
   -0.1712   -0.6979    0.0000 C   0  0  0  0  0  0  0  0  0  0  0  0
    0.6538   -0.6979    0.0000 C   0  0  0  0  0  0  0  0  0  0  0  0
    1.1387   -0.0305    0.0000 N   0  0  0  0  0  0  0  0  0  0  0  0
    1.9233   -0.2854    0.0000 C   0  0  0  0  0  0  0  0  0  0  0  0
    2.6378    0.1271    0.0000 C   0  0  0  0  0  0  0  0  0  0  0  0
    3.3523   -0.2854    0.0000 C   0  0  0  0  0  0  0  0  0  0  0  0
    3.3523   -1.1104    0.0000 C   0  0  0  0  0  0  0  0  0  0  0  0
    4.0668   -1.5229    0.0000 Cl  0  0  0  0  0  0  0  0  0  0  0  0
    2.6378   -1.5229    0.0000 C   0  0  0  0  0  0  0  0  0  0  0  0
    1.9233   -1.1104    0.0000 N   0  0  0  0  0  0  0  0  0  0  0  0
    1.1387   -1.3654    0.0000 C   0  0  0  0  0  0  0  0  0  0  0  0
    0.8838   -2.1500    0.0000 C   0  0  0  0  0  0  0  0  0  0  0  0
    1.4358   -2.7631    0.0000 O   0  0  0  0  0  0  0  0  0  0  0  0
    0.0768   -2.3215    0.0000 N   0  0  0  0  0  0  0  0  0  0  0  0
   -0.1781   -3.1062    0.0000 C   0  0  0  0  0  0  0  0  0  0  0  0
   -0.9851   -3.2777    0.0000 C   0  0  0  0  0  0  0  0  0  0  0  0
   -1.2400   -4.0623    0.0000 C   0  0  0  0  0  0  0  0  0  0  0  0
   -2.0470   -4.2338    0.0000 C   0  0  0  0  0  0  0  0  0  0  0  0
   -2.5990   -3.6207    0.0000 C   0  0  0  0  0  0  0  0  0  0  0  0
   -2.3441   -2.8361    0.0000 C   0  0  0  0  0  0  0  0  0  0  0  0
   -1.5371   -2.6646    0.0000 C   0  0  0  0  0  0  0  0  0  0  0  0
   -3.4060   -3.7923    0.0000 N   0  0  0  0  0  0  0  0  0  0  0  0
   -3.6610   -4.5769    0.0000 C   0  0  0  0  0  0  0  0  0  0  0  0
   -4.4679   -4.7484    0.0000 C   0  0  0  0  0  0  0  0  0  0  0  0
   -5.0200   -4.1353    0.0000 C   0  0  0  0  0  0  0  0  0  0  0  0
   -4.7650   -3.3507    0.0000 C   0  0  0  0  0  0  0  0  0  0  0  0
   -3.9580   -3.1792    0.0000 C   0  0  0  0  0  0  0  0  0  0  0  0
   -5.8269   -4.3068    0.0000 C   0  0  0  0  0  0  0  0  0  0  0  0
   -6.0819   -5.0915    0.0000 C   0  0  0  0  0  0  0  0  0  0  0  0
   -6.8888   -5.2630    0.0000 C   0  0  0  0  0  0  0  0  0  0  0  0
   -7.4409   -4.6499    0.0000 C   0  0  0  0  0  0  0  0  0  0  0  0
   -8.2478   -4.8214    0.0000 O   0  0  0  0  0  0  0  0  0  0  0  0
   -8.5028   -5.6060    0.0000 C   0  0  0  0  0  0  0  0  0  0  0  0
   -8.7577   -6.3907    0.0000 F   0  0  0  0  0  0  0  0  0  0  0  0
   -9.2874   -5.3511    0.0000 F   0  0  0  0  0  0  0  0  0  0  0  0
   -7.7182   -5.8610    0.0000 F   0  0  0  0  0  0  0  0  0  0  0  0
   -7.1859   -3.8653    0.0000 C   0  0  0  0  0  0  0  0  0  0  0  0
   -6.3790   -3.6937    0.0000 C   0  0  0  0  0  0  0  0  0  0  0  0
  1  2  1  0  0  0  0
  2  3  1  0  0  0  0
  3  4  1  0  0  0  0
  4  5  2  0  0  0  0
  5  6  1  0  0  0  0
  6  7  2  0  0  0  0
  7  8  1  0  0  0  0
  8  9  1  0  0  0  0
  8 10  2  0  0  0  0
 10 11  1  0  0  0  0
  5 11  1  0  0  0  0
 11 12  1  0  0  0  0
  3 12  2  0  0  0  0
 12 13  1  0  0  0  0
 13 14  2  0  0  0  0
 13 15  1  0  0  0  0
 15 16  1  0  0  0  0
 16 17  1  0  0  0  0
 17 18  2  0  0  0  0
 18 19  1  0  0  0  0
 19 20  2  0  0  0  0
 20 21  1  0  0  0  0
 21 22  2  0  0  0  0
 17 22  1  0  0  0  0
 20 23  1  0  0  0  0
 23 24  1  0  0  0  0
 24 25  1  0  0  0  0
 25 26  1  0  0  0  0
 26 27  1  0  0  0  0
 27 28  1  0  0  0  0
 23 28  1  0  0  0  0
 26 29  1  0  0  0  0
 29 30  2  0  0  0  0
 30 31  1  0  0  0  0
 31 32  2  0  0  0  0
 32 33  1  0  0  0  0
 33 34  1  0  0  0  0
 34 35  1  0  0  0  0
 34 36  1  0  0  0  0
 34 37  1  0  0  0  0
 32 38  1  0  0  0  0
 38 39  2  0  0  0  0
 29 39  1  0  0  0  0
M  END
> <COMPOUND_ID>
MMV687696

$$$$

  Mrv0541 04191616472D          

 34 38  0  0  1  0            999 V2000
    7.7525   -1.2991    0.0000 F   0  0  0  0  0  0  0  0  0  0  0  0
    7.0380   -1.7116    0.0000 C   0  0  0  0  0  0  0  0  0  0  0  0
    7.0380   -2.5366    0.0000 C   0  0  0  0  0  0  0  0  0  0  0  0
    6.3235   -2.9491    0.0000 C   0  0  0  0  0  0  0  0  0  0  0  0
    5.6091   -2.5366    0.0000 C   0  0  0  0  0  0  0  0  0  0  0  0
    5.6091   -1.7116    0.0000 C   0  0  0  0  0  0  0  0  0  0  0  0
    4.8946   -1.2991    0.0000 F   0  0  0  0  0  0  0  0  0  0  0  0
    6.3235   -1.2991    0.0000 C   0  0  0  0  0  0  0  0  0  0  0  0
    6.3235   -0.4741    0.0000 C   0  0  0  0  0  0  0  0  0  0  0  0
    5.6091   -0.0616    0.0000 C   0  0  0  0  0  0  0  0  0  0  0  0
    5.6091    0.7634    0.0000 C   0  0  0  0  0  0  0  0  0  0  0  0
    6.3235    1.1759    0.0000 N   0  0  0  0  0  0  0  0  0  0  0  0
    6.3235    2.0009    0.0000 C   0  0  0  0  0  0  0  0  0  0  0  0
    7.0380    2.4134    0.0000 C   0  0  0  0  0  0  0  0  0  0  0  0
    7.0380    3.2384    0.0000 C   0  0  0  0  0  0  0  0  0  0  0  0
    7.7525    3.6509    0.0000 C   0  0  0  0  0  0  0  0  0  0  0  0
    8.4669    3.2384    0.0000 C   0  0  0  0  0  0  0  0  0  0  0  0
    8.4669    2.4134    0.0000 C   0  0  0  0  0  0  0  0  0  0  0  0
    7.7525    2.0009    0.0000 C   0  0  0  0  0  0  0  0  0  0  0  0
    7.0380    0.7634    0.0000 C   0  0  0  0  0  0  0  0  0  0  0  0
    7.0380   -0.0616    0.0000 C   0  0  0  0  0  0  0  0  0  0  0  0
    6.3235   -3.7741    0.0000 N   0  0  0  0  0  0  0  0  0  0  0  0
    6.9910   -4.2590    0.0000 C   0  0  0  0  0  0  0  0  0  0  0  0
    6.7360   -5.0437    0.0000 C   0  0  2  0  0  0  0  0  0  0  0  0
    7.2210   -5.7111    0.0000 C   0  0  0  0  0  0  0  0  0  0  0  0
    8.0414   -5.6249    0.0000 O   0  0  0  0  0  0  0  0  0  0  0  0
    8.5264   -6.2923    0.0000 C   0  0  0  0  0  0  0  0  0  0  0  0
    9.3514   -6.2923    0.0000 C   0  0  0  0  0  0  0  0  0  0  0  0
    9.6063   -7.0769    0.0000 C   0  0  0  0  0  0  0  0  0  0  0  0
    8.9389   -7.5618    0.0000 O   0  0  0  0  0  0  0  0  0  0  0  0
    8.2714   -7.0769    0.0000 N   0  0  0  0  0  0  0  0  0  0  0  0
    5.9110   -5.0437    0.0000 O   0  0  0  0  0  0  0  0  0  0  0  0
    5.6561   -4.2590    0.0000 C   0  0  0  0  0  0  0  0  0  0  0  0
    4.8715   -4.0041    0.0000 O   0  0  0  0  0  0  0  0  0  0  0  0
  1  2  1  0  0  0  0
  2  3  2  0  0  0  0
  3  4  1  0  0  0  0
  4  5  2  0  0  0  0
  5  6  1  0  0  0  0
  6  7  1  0  0  0  0
  6  8  2  0  0  0  0
  2  8  1  0  0  0  0
  8  9  1  0  0  0  0
  9 10  2  0  0  0  0
 10 11  1  0  0  0  0
 11 12  1  0  0  0  0
 12 13  1  0  0  0  0
 13 14  1  0  0  0  0
 14 15  2  0  0  0  0
 15 16  1  0  0  0  0
 16 17  2  0  0  0  0
 17 18  1  0  0  0  0
 18 19  2  0  0  0  0
 14 19  1  0  0  0  0
 12 20  1  0  0  0  0
 20 21  1  0  0  0  0
  9 21  1  0  0  0  0
  4 22  1  0  0  0  0
 22 23  1  0  0  0  0
 23 24  1  0  0  0  0
 24 25  1  6  0  0  0
 25 26  1  0  0  0  0
 26 27  1  0  0  0  0
 27 28  1  0  0  0  0
 28 29  2  0  0  0  0
 29 30  1  0  0  0  0
 30 31  1  0  0  0  0
 27 31  2  0  0  0  0
 24 32  1  0  0  0  0
 32 33  1  0  0  0  0
 22 33  1  0  0  0  0
 33 34  2  0  0  0  0
M  END
> <COMPOUND_ID>
MMV687813

$$$$

  Mrv0541 04191616472D          

 38 42  0  0  0  0            999 V2000
    0.1715    0.2971    0.0000 C   0  0  0  0  0  0  0  0  0  0  0  0
    0.7846   -0.2549    0.0000 C   0  0  0  0  0  0  0  0  0  0  0  0
    0.1715   -0.8070    0.0000 C   0  0  0  0  0  0  0  0  0  0  0  0
   -0.6131   -0.5520    0.0000 O   0  0  0  0  0  0  0  0  0  0  0  0
   -1.2262   -1.1041    0.0000 C   0  0  0  0  0  0  0  0  0  0  0  0
   -1.0547   -1.9110    0.0000 C   0  0  0  0  0  0  0  0  0  0  0  0
   -1.6678   -2.4631    0.0000 C   0  0  0  0  0  0  0  0  0  0  0  0
   -2.4524   -2.2081    0.0000 C   0  0  0  0  0  0  0  0  0  0  0  0
   -2.6239   -1.4012    0.0000 C   0  0  0  0  0  0  0  0  0  0  0  0
   -2.0108   -0.8491    0.0000 C   0  0  0  0  0  0  0  0  0  0  0  0
   -3.0655   -2.7602    0.0000 N   0  0  0  0  0  0  0  0  0  0  0  0
   -2.8939   -3.5671    0.0000 C   0  0  0  0  0  0  0  0  0  0  0  0
   -3.5070   -4.1192    0.0000 C   0  0  0  0  0  0  0  0  0  0  0  0
   -4.2917   -3.8642    0.0000 C   0  0  0  0  0  0  0  0  0  0  0  0
   -4.4632   -3.0573    0.0000 C   0  0  0  0  0  0  0  0  0  0  0  0
   -3.8501   -2.5052    0.0000 C   0  0  0  0  0  0  0  0  0  0  0  0
   -4.9048   -4.4163    0.0000 O   0  0  0  0  0  0  0  0  0  0  0  0
   -5.6894   -4.1613    0.0000 C   0  0  0  0  0  0  0  0  0  0  0  0
   -6.3025   -4.7134    0.0000 C   0  0  0  0  0  0  0  0  0  0  0  0
   -7.0871   -4.4584    0.0000 C   0  0  0  0  0  0  0  0  0  0  0  0
   -7.2586   -3.6514    0.0000 C   0  0  0  0  0  0  0  0  0  0  0  0
   -8.0432   -3.3965    0.0000 O   0  0  0  0  0  0  0  0  0  0  0  0
   -8.6563   -3.9485    0.0000 C   0  0  0  0  0  0  0  0  0  0  0  0
   -9.2694   -4.5006    0.0000 F   0  0  0  0  0  0  0  0  0  0  0  0
   -8.1043   -4.5616    0.0000 F   0  0  0  0  0  0  0  0  0  0  0  0
   -9.2084   -3.3354    0.0000 F   0  0  0  0  0  0  0  0  0  0  0  0
   -6.6455   -3.0994    0.0000 C   0  0  0  0  0  0  0  0  0  0  0  0
   -5.8609   -3.3544    0.0000 C   0  0  0  0  0  0  0  0  0  0  0  0
    1.2695    0.4125    0.0000 C   0  0  0  0  0  0  0  0  0  0  0  0
    2.0542    0.1576    0.0000 N   0  0  0  0  0  0  0  0  0  0  0  0
    2.8388    0.4125    0.0000 C   0  0  0  0  0  0  0  0  0  0  0  0
    3.3237   -0.2549    0.0000 C   0  0  0  0  0  0  0  0  0  0  0  0
    2.8388   -0.9224    0.0000 N   0  0  0  0  0  0  0  0  0  0  0  0
    2.0542   -0.6674    0.0000 C   0  0  0  0  0  0  0  0  0  0  0  0
    1.2695   -0.9224    0.0000 O   0  0  0  0  0  0  0  0  0  0  0  0
    4.1487   -0.2549    0.0000 N   0  0  0  0  0  0  0  0  0  0  0  0
    4.5612    0.4595    0.0000 O   0  0  0  0  0  0  0  0  0  0  0  0
    4.5612   -0.9694    0.0000 O   0  0  0  0  0  0  0  0  0  0  0  0
  1  2  1  0  0  0  0
  2  3  1  0  0  0  0
  3  4  1  0  0  0  0
  4  5  1  0  0  0  0
  5  6  2  0  0  0  0
  6  7  1  0  0  0  0
  7  8  2  0  0  0  0
  8  9  1  0  0  0  0
  9 10  2  0  0  0  0
  5 10  1  0  0  0  0
  8 11  1  0  0  0  0
 11 12  1  0  0  0  0
 12 13  1  0  0  0  0
 13 14  1  0  0  0  0
 14 15  1  0  0  0  0
 15 16  1  0  0  0  0
 11 16  1  0  0  0  0
 14 17  1  0  0  0  0
 17 18  1  0  0  0  0
 18 19  2  0  0  0  0
 19 20  1  0  0  0  0
 20 21  2  0  0  0  0
 21 22  1  0  0  0  0
 22 23  1  0  0  0  0
 23 24  1  0  0  0  0
 23 25  1  0  0  0  0
 23 26  1  0  0  0  0
 21 27  1  0  0  0  0
 27 28  2  0  0  0  0
 18 28  1  0  0  0  0
  2 29  1  0  0  0  0
 29 30  1  0  0  0  0
 30 31  1  0  0  0  0
 31 32  2  0  0  0  0
 32 33  1  0  0  0  0
 33 34  2  0  0  0  0
 30 34  1  0  0  0  0
 34 35  1  0  0  0  0
  2 35  1  0  0  0  0
 32 36  1  0  0  0  0
 36 37  2  0  0  0  0
 36 38  2  0  0  0  0
M  END
> <COMPOUND_ID>
MMV688262

$$$$

  Mrv0541 04191616472D          

 32 35  0  0  0  0            999 V2000
   -0.7145   -1.2375    0.0000 C   0  0  0  0  0  0  0  0  0  0  0  0
    0.0000   -1.6500    0.0000 C   0  0  0  0  0  0  0  0  0  0  0  0
    0.7145   -1.2375    0.0000 O   0  0  0  0  0  0  0  0  0  0  0  0
    0.0000   -2.4750    0.0000 N   0  0  0  0  0  0  0  0  0  0  0  0
    0.7145   -2.8875    0.0000 C   0  0  0  0  0  0  0  0  0  0  0  0
    0.7145   -3.7125    0.0000 C   0  0  0  0  0  0  0  0  0  0  0  0
    1.3819   -4.1974    0.0000 C   0  0  0  0  0  0  0  0  0  0  0  0
    1.1270   -4.9820    0.0000 N   0  0  0  0  0  0  0  0  0  0  0  0
    0.3020   -4.9820    0.0000 C   0  0  0  0  0  0  0  0  0  0  0  0
   -0.1830   -5.6495    0.0000 O   0  0  0  0  0  0  0  0  0  0  0  0
    0.0470   -4.1974    0.0000 O   0  0  0  0  0  0  0  0  0  0  0  0
    1.6119   -5.6495    0.0000 C   0  0  0  0  0  0  0  0  0  0  0  0
    2.4324   -5.5632    0.0000 C   0  0  0  0  0  0  0  0  0  0  0  0
    2.9173   -6.2307    0.0000 C   0  0  0  0  0  0  0  0  0  0  0  0
    2.5817   -6.9844    0.0000 C   0  0  0  0  0  0  0  0  0  0  0  0
    1.7613   -7.0706    0.0000 C   0  0  0  0  0  0  0  0  0  0  0  0
    1.4257   -7.8243    0.0000 F   0  0  0  0  0  0  0  0  0  0  0  0
    1.2763   -6.4032    0.0000 C   0  0  0  0  0  0  0  0  0  0  0  0
    3.0667   -7.6518    0.0000 C   0  0  0  0  0  0  0  0  0  0  0  0
    3.8871   -7.5656    0.0000 C   0  0  0  0  0  0  0  0  0  0  0  0
    4.3721   -8.2330    0.0000 C   0  0  0  0  0  0  0  0  0  0  0  0
    4.0365   -8.9867    0.0000 C   0  0  0  0  0  0  0  0  0  0  0  0
    4.5214   -9.6541    0.0000 C   0  0  0  0  0  0  0  0  0  0  0  0
    4.1859  -10.4078    0.0000 N   0  0  0  0  0  0  0  0  0  0  0  0
    4.6708  -11.0752    0.0000 C   0  0  0  0  0  0  0  0  0  0  0  0
    4.3352  -11.8289    0.0000 C   0  0  0  0  0  0  0  0  0  0  0  0
    4.7477  -12.5434    0.0000 C   0  0  0  0  0  0  0  0  0  0  0  0
    4.1957  -13.1565    0.0000 N   0  0  0  0  0  0  0  0  0  0  0  0
    3.4420  -12.8209    0.0000 N   0  0  0  0  0  0  0  0  0  0  0  0
    3.5283  -12.0004    0.0000 N   0  0  0  0  0  0  0  0  0  0  0  0
    3.2160   -9.0729    0.0000 C   0  0  0  0  0  0  0  0  0  0  0  0
    2.7311   -8.4055    0.0000 C   0  0  0  0  0  0  0  0  0  0  0  0
  1  2  1  0  0  0  0
  2  3  2  0  0  0  0
  2  4  1  0  0  0  0
  4  5  1  0  0  0  0
  5  6  1  0  0  0  0
  6  7  1  0  0  0  0
  7  8  1  0  0  0  0
  8  9  1  0  0  0  0
  9 10  2  0  0  0  0
  9 11  1  0  0  0  0
  6 11  1  0  0  0  0
  8 12  1  0  0  0  0
 12 13  2  0  0  0  0
 13 14  1  0  0  0  0
 14 15  2  0  0  0  0
 15 16  1  0  0  0  0
 16 17  1  0  0  0  0
 16 18  2  0  0  0  0
 12 18  1  0  0  0  0
 15 19  1  0  0  0  0
 19 20  2  0  0  0  0
 20 21  1  0  0  0  0
 21 22  2  0  0  0  0
 22 23  1  0  0  0  0
 23 24  1  0  0  0  0
 24 25  1  0  0  0  0
 25 26  1  0  0  0  0
 26 27  1  0  0  0  0
 27 28  2  0  0  0  0
 28 29  1  0  0  0  0
 29 30  1  0  0  0  0
 26 30  2  0  0  0  0
 22 31  1  0  0  0  0
 31 32  2  0  0  0  0
 19 32  1  0  0  0  0
M  END
> <COMPOUND_ID>
MMV688327

$$$$

  Mrv0541 04191616472D          

 26 28  0  0  0  0            999 V2000
   -0.7145   -1.2375    0.0000 C   0  0  0  0  0  0  0  0  0  0  0  0
    0.0000   -1.6500    0.0000 C   0  0  0  0  0  0  0  0  0  0  0  0
    0.7145   -1.2375    0.0000 O   0  0  0  0  0  0  0  0  0  0  0  0
    0.0000   -2.4750    0.0000 N   0  0  0  0  0  0  0  0  0  0  0  0
    0.7145   -2.8875    0.0000 C   0  0  0  0  0  0  0  0  0  0  0  0
    0.7145   -3.7125    0.0000 C   0  0  0  0  0  0  0  0  0  0  0  0
    1.3819   -4.1974    0.0000 C   0  0  0  0  0  0  0  0  0  0  0  0
    1.1270   -4.9820    0.0000 N   0  0  0  0  0  0  0  0  0  0  0  0
    0.3020   -4.9820    0.0000 C   0  0  0  0  0  0  0  0  0  0  0  0
   -0.1830   -5.6495    0.0000 O   0  0  0  0  0  0  0  0  0  0  0  0
    0.0470   -4.1974    0.0000 O   0  0  0  0  0  0  0  0  0  0  0  0
    1.6119   -5.6495    0.0000 C   0  0  0  0  0  0  0  0  0  0  0  0
    2.4324   -5.5632    0.0000 C   0  0  0  0  0  0  0  0  0  0  0  0
    2.9173   -6.2307    0.0000 C   0  0  0  0  0  0  0  0  0  0  0  0
    2.5817   -6.9844    0.0000 C   0  0  0  0  0  0  0  0  0  0  0  0
    1.7613   -7.0706    0.0000 C   0  0  0  0  0  0  0  0  0  0  0  0
    1.4257   -7.8243    0.0000 F   0  0  0  0  0  0  0  0  0  0  0  0
    1.2763   -6.4032    0.0000 C   0  0  0  0  0  0  0  0  0  0  0  0
    3.0667   -7.6518    0.0000 C   0  0  0  0  0  0  0  0  0  0  0  0
    3.8871   -7.5656    0.0000 C   0  0  0  0  0  0  0  0  0  0  0  0
    4.3721   -8.2330    0.0000 C   0  0  0  0  0  0  0  0  0  0  0  0
    4.0365   -8.9867    0.0000 C   0  0  0  0  0  0  0  0  0  0  0  0
    4.5214   -9.6541    0.0000 C   0  0  0  0  0  0  0  0  0  0  0  0
    5.3419   -9.5679    0.0000 O   0  0  0  0  0  0  0  0  0  0  0  0
    3.2160   -9.0729    0.0000 C   0  0  0  0  0  0  0  0  0  0  0  0
    2.7311   -8.4055    0.0000 C   0  0  0  0  0  0  0  0  0  0  0  0
  1  2  1  0  0  0  0
  2  3  2  0  0  0  0
  2  4  1  0  0  0  0
  4  5  1  0  0  0  0
  5  6  1  0  0  0  0
  6  7  1  0  0  0  0
  7  8  1  0  0  0  0
  8  9  1  0  0  0  0
  9 10  2  0  0  0  0
  9 11  1  0  0  0  0
  6 11  1  0  0  0  0
  8 12  1  0  0  0  0
 12 13  2  0  0  0  0
 13 14  1  0  0  0  0
 14 15  2  0  0  0  0
 15 16  1  0  0  0  0
 16 17  1  0  0  0  0
 16 18  2  0  0  0  0
 12 18  1  0  0  0  0
 15 19  1  0  0  0  0
 19 20  2  0  0  0  0
 20 21  1  0  0  0  0
 21 22  2  0  0  0  0
 22 23  1  0  0  0  0
 23 24  1  0  0  0  0
 22 25  1  0  0  0  0
 25 26  2  0  0  0  0
 19 26  1  0  0  0  0
M  END
> <COMPOUND_ID>
MMV688508

$$$$

  Mrv0541 04191616472D          

 23 26  0  0  0  0            999 V2000
    4.7812    4.4104    0.0000 C   0  0  0  0  0  0  0  0  0  0  0  0
    4.7812    3.5854    0.0000 C   0  0  0  0  0  0  0  0  0  0  0  0
    5.4957    3.1729    0.0000 C   0  0  0  0  0  0  0  0  0  0  0  0
    5.4957    2.3479    0.0000 C   0  0  0  0  0  0  0  0  0  0  0  0
    4.7812    1.9354    0.0000 C   0  0  0  0  0  0  0  0  0  0  0  0
    4.0668    2.3479    0.0000 C   0  0  0  0  0  0  0  0  0  0  0  0
    4.0668    3.1729    0.0000 N   0  0  0  0  0  0  0  0  0  0  0  0
    3.3523    1.9354    0.0000 C   0  0  0  0  0  0  0  0  0  0  0  0
    3.3523    1.1104    0.0000 N   0  0  0  0  0  0  0  0  0  0  0  0
    2.6378    0.6979    0.0000 C   0  0  0  0  0  0  0  0  0  0  0  0
    2.6378   -0.1271    0.0000 N   0  0  0  0  0  0  0  0  0  0  0  0
    1.9233   -0.5396    0.0000 C   0  0  0  0  0  0  0  0  0  0  0  0
    1.9233   -1.3646    0.0000 C   0  0  0  0  0  0  0  0  0  0  0  0
    1.2089   -1.7771    0.0000 C   0  0  0  0  0  0  0  0  0  0  0  0
    0.4944   -1.3646    0.0000 N   0  0  0  0  0  0  0  0  0  0  0  0
    0.4944   -0.5396    0.0000 C   0  0  0  0  0  0  0  0  0  0  0  0
    1.2089   -0.1271    0.0000 N   0  0  0  0  0  0  0  0  0  0  0  0
    1.9233    1.1104    0.0000 C   0  0  0  0  0  0  0  0  0  0  0  0
    1.1387    0.8555    0.0000 S   0  0  0  0  0  0  0  0  0  0  0  0
    0.6538    1.5229    0.0000 C   0  0  0  0  0  0  0  0  0  0  0  0
    1.1387    2.1904    0.0000 C   0  0  0  0  0  0  0  0  0  0  0  0
    1.9233    1.9354    0.0000 C   0  0  0  0  0  0  0  0  0  0  0  0
    2.6378    2.3479    0.0000 N   0  0  0  0  0  0  0  0  0  0  0  0
  1  2  1  0  0  0  0
  2  3  2  0  0  0  0
  3  4  1  0  0  0  0
  4  5  2  0  0  0  0
  5  6  1  0  0  0  0
  6  7  2  0  0  0  0
  2  7  1  0  0  0  0
  6  8  1  0  0  0  0
  8  9  2  0  0  0  0
  9 10  1  0  0  0  0
 10 11  1  0  0  0  0
 11 12  1  0  0  0  0
 12 13  2  0  0  0  0
 13 14  1  0  0  0  0
 14 15  2  0  0  0  0
 15 16  1  0  0  0  0
 16 17  2  0  0  0  0
 12 17  1  0  0  0  0
 10 18  2  0  0  0  0
 18 19  1  0  0  0  0
 19 20  1  0  0  0  0
 20 21  2  0  0  0  0
 21 22  1  0  0  0  0
 18 22  1  0  0  0  0
 22 23  2  0  0  0  0
  8 23  1  0  0  0  0
M  END
> <COMPOUND_ID>
MMV688122

$$$$

  Mrv0541 04191616472D          

 25 28  0  0  0  0            999 V2000
    8.3221    7.0109    0.0000 C   0  0  0  0  0  0  0  0  0  0  0  0
    7.9865    6.2573    0.0000 C   0  0  0  0  0  0  0  0  0  0  0  0
    8.4714    5.5898    0.0000 C   0  0  0  0  0  0  0  0  0  0  0  0
    8.1359    4.8362    0.0000 C   0  0  0  0  0  0  0  0  0  0  0  0
    7.3154    4.7499    0.0000 C   0  0  0  0  0  0  0  0  0  0  0  0
    6.8305    5.4174    0.0000 C   0  0  0  0  0  0  0  0  0  0  0  0
    6.0100    5.3311    0.0000 C   0  0  0  0  0  0  0  0  0  0  0  0
    5.6744    4.5775    0.0000 N   0  0  0  0  0  0  0  0  0  0  0  0
    6.0869    3.8630    0.0000 C   0  0  0  0  0  0  0  0  0  0  0  0
    5.5349    3.2499    0.0000 C   0  0  0  0  0  0  0  0  0  0  0  0
    4.7812    3.5854    0.0000 C   0  0  0  0  0  0  0  0  0  0  0  0
    4.0668    3.1729    0.0000 N   0  0  0  0  0  0  0  0  0  0  0  0
    4.0668    2.3479    0.0000 C   0  0  0  0  0  0  0  0  0  0  0  0
    4.7812    1.9354    0.0000 O   0  0  0  0  0  0  0  0  0  0  0  0
    3.3523    1.9354    0.0000 C   0  0  0  0  0  0  0  0  0  0  0  0
    3.3523    1.1104    0.0000 C   0  0  0  0  0  0  0  0  0  0  0  0
    2.6378    0.6979    0.0000 C   0  0  0  0  0  0  0  0  0  0  0  0
    1.9233    1.1104    0.0000 C   0  0  0  0  0  0  0  0  0  0  0  0
    1.1387    0.8555    0.0000 O   0  0  0  0  0  0  0  0  0  0  0  0
    0.6538    1.5229    0.0000 C   0  0  0  0  0  0  0  0  0  0  0  0
    1.1387    2.1904    0.0000 O   0  0  0  0  0  0  0  0  0  0  0  0
    1.9233    1.9354    0.0000 C   0  0  0  0  0  0  0  0  0  0  0  0
    2.6378    2.3479    0.0000 C   0  0  0  0  0  0  0  0  0  0  0  0
    4.8675    4.4059    0.0000 N   0  0  0  0  0  0  0  0  0  0  0  0
    7.1660    6.1710    0.0000 C   0  0  0  0  0  0  0  0  0  0  0  0
  1  2  1  0  0  0  0
  2  3  2  0  0  0  0
  3  4  1  0  0  0  0
  4  5  2  0  0  0  0
  5  6  1  0  0  0  0
  6  7  1  0  0  0  0
  7  8  1  0  0  0  0
  8  9  1  0  0  0  0
  9 10  2  0  0  0  0
 10 11  1  0  0  0  0
 11 12  1  0  0  0  0
 12 13  1  0  0  0  0
 13 14  2  0  0  0  0
 13 15  1  0  0  0  0
 15 16  2  0  0  0  0
 16 17  1  0  0  0  0
 17 18  2  0  0  0  0
 18 19  1  0  0  0  0
 19 20  1  0  0  0  0
 20 21  1  0  0  0  0
 21 22  1  0  0  0  0
 18 22  1  0  0  0  0
 22 23  2  0  0  0  0
 15 23  1  0  0  0  0
 11 24  2  0  0  0  0
  8 24  1  0  0  0  0
  6 25  2  0  0  0  0
  2 25  1  0  0  0  0
M  END
> <COMPOUND_ID>
MMV676386

$$$$

  Mrv0541 04191616472D          

 19 20  0  0  0  0            999 V2000
   -0.7145    1.2375    0.0000 N   0  0  0  0  0  0  0  0  0  0  0  0
    0.0000    0.8250    0.0000 C   0  0  0  0  0  0  0  0  0  0  0  0
    0.7145    1.2375    0.0000 O   0  0  0  0  0  0  0  0  0  0  0  0
    0.0000    0.0000    0.0000 C   0  0  0  0  0  0  0  0  0  0  0  0
    0.7145   -0.4125    0.0000 O   0  0  0  0  0  0  0  0  0  0  0  0
    0.7145   -1.2375    0.0000 C   0  0  0  0  0  0  0  0  0  0  0  0
    1.4289   -1.6500    0.0000 C   0  0  0  0  0  0  0  0  0  0  0  0
    1.4289   -2.4750    0.0000 C   0  0  0  0  0  0  0  0  0  0  0  0
    0.7145   -2.8875    0.0000 C   0  0  0  0  0  0  0  0  0  0  0  0
    0.0000   -2.4750    0.0000 C   0  0  0  0  0  0  0  0  0  0  0  0
    0.0000   -1.6500    0.0000 C   0  0  0  0  0  0  0  0  0  0  0  0
    0.7145   -3.7125    0.0000 C   0  0  0  0  0  0  0  0  0  0  0  0
    1.4289   -4.1250    0.0000 C   0  0  0  0  0  0  0  0  0  0  0  0
    1.4289   -4.9500    0.0000 C   0  0  0  0  0  0  0  0  0  0  0  0
    0.7145   -5.3625    0.0000 C   0  0  0  0  0  0  0  0  0  0  0  0
   -0.0000   -4.9500    0.0000 C   0  0  0  0  0  0  0  0  0  0  0  0
    0.0000   -4.1250    0.0000 C   0  0  0  0  0  0  0  0  0  0  0  0
    0.7145   -6.1875    0.0000 C   0  0  0  0  0  0  0  0  0  0  0  0
    0.7145   -7.0125    0.0000 N   0  0  0  0  0  0  0  0  0  0  0  0
  1  2  1  0  0  0  0
  2  3  2  0  0  0  0
  2  4  1  0  0  0  0
  4  5  1  0  0  0  0
  5  6  1  0  0  0  0
  6  7  2  0  0  0  0
  7  8  1  0  0  0  0
  8  9  2  0  0  0  0
  9 10  1  0  0  0  0
 10 11  2  0  0  0  0
  6 11  1  0  0  0  0
  9 12  1  0  0  0  0
 12 13  2  0  0  0  0
 13 14  1  0  0  0  0
 14 15  2  0  0  0  0
 15 16  1  0  0  0  0
 16 17  2  0  0  0  0
 12 17  1  0  0  0  0
 15 18  1  0  0  0  0
 18 19  3  0  0  0  0
M  END
> <COMPOUND_ID>
MMV053220

$$$$

  Mrv0541 04191616472D          

 28 30  0  0  0  0            999 V2000
   -0.3602    1.4321    0.0000 C   0  0  0  0  0  0  0  0  0  0  0  0
   -0.1053    0.6475    0.0000 O   0  0  0  0  0  0  0  0  0  0  0  0
    0.7017    0.4759    0.0000 C   0  0  0  0  0  0  0  0  0  0  0  0
    1.2537    1.0890    0.0000 O   0  0  0  0  0  0  0  0  0  0  0  0
    0.9566   -0.3087    0.0000 C   0  0  0  0  0  0  0  0  0  0  0  0
    1.7413   -0.5636    0.0000 C   0  0  0  0  0  0  0  0  0  0  0  0
    2.3863   -0.0492    0.0000 C   0  0  0  0  0  0  0  0  0  0  0  0
    3.1906   -0.2328    0.0000 C   0  0  0  0  0  0  0  0  0  0  0  0
    3.5485   -0.9761    0.0000 C   0  0  0  0  0  0  0  0  0  0  0  0
    3.1906   -1.7194    0.0000 C   0  0  0  0  0  0  0  0  0  0  0  0
    2.3863   -1.9030    0.0000 C   0  0  0  0  0  0  0  0  0  0  0  0
    1.7413   -1.3886    0.0000 C   0  0  0  0  0  0  0  0  0  0  0  0
    0.9566   -1.6436    0.0000 S   0  0  0  0  0  0  0  0  0  0  0  0
    0.4717   -0.9761    0.0000 C   0  0  0  0  0  0  0  0  0  0  0  0
   -0.3533   -0.9761    0.0000 N   0  0  0  0  0  0  0  0  0  0  0  0
   -0.7658   -1.6906    0.0000 C   0  0  0  0  0  0  0  0  0  0  0  0
   -0.3533   -2.4051    0.0000 O   0  0  0  0  0  0  0  0  0  0  0  0
   -1.5908   -1.6906    0.0000 C   0  0  0  0  0  0  0  0  0  0  0  0
   -2.0033   -2.4051    0.0000 C   0  0  0  0  0  0  0  0  0  0  0  0
   -1.5908   -3.1195    0.0000 F   0  0  0  0  0  0  0  0  0  0  0  0
   -2.8283   -2.4051    0.0000 C   0  0  0  0  0  0  0  0  0  0  0  0
   -3.2408   -3.1195    0.0000 F   0  0  0  0  0  0  0  0  0  0  0  0
   -3.2408   -1.6906    0.0000 C   0  0  0  0  0  0  0  0  0  0  0  0
   -4.0658   -1.6906    0.0000 F   0  0  0  0  0  0  0  0  0  0  0  0
   -2.8283   -0.9761    0.0000 C   0  0  0  0  0  0  0  0  0  0  0  0
   -3.2408   -0.2616    0.0000 F   0  0  0  0  0  0  0  0  0  0  0  0
   -2.0033   -0.9761    0.0000 C   0  0  0  0  0  0  0  0  0  0  0  0
   -1.5908   -0.2616    0.0000 F   0  0  0  0  0  0  0  0  0  0  0  0
  1  2  1  0  0  0  0
  2  3  1  0  0  0  0
  3  4  2  0  0  0  0
  3  5  1  0  0  0  0
  5  6  1  0  0  0  0
  6  7  1  0  0  0  0
  7  8  1  0  0  0  0
  8  9  1  0  0  0  0
  9 10  1  0  0  0  0
 10 11  1  0  0  0  0
 11 12  1  0  0  0  0
  6 12  2  0  0  0  0
 12 13  1  0  0  0  0
 13 14  1  0  0  0  0
  5 14  2  0  0  0  0
 14 15  1  0  0  0  0
 15 16  1  0  0  0  0
 16 17  2  0  0  0  0
 16 18  1  0  0  0  0
 18 19  2  0  0  0  0
 19 20  1  0  0  0  0
 19 21  1  0  0  0  0
 21 22  1  0  0  0  0
 21 23  2  0  0  0  0
 23 24  1  0  0  0  0
 23 25  1  0  0  0  0
 25 26  1  0  0  0  0
 25 27  2  0  0  0  0
 18 27  1  0  0  0  0
 27 28  1  0  0  0  0
M  END
> <COMPOUND_ID>
MMV461553

$$$$

  Mrv0541 04191616472D          

 22 24  0  0  0  0            999 V2000
    2.4209   -3.9721    0.0000 C   0  0  0  0  0  0  0  0  0  0  0  0
    1.7065   -3.5596    0.0000 C   0  0  0  0  0  0  0  0  0  0  0  0
    1.7065   -2.7346    0.0000 C   0  0  0  0  0  0  0  0  0  0  0  0
    0.9920   -2.3221    0.0000 S   0  0  0  0  0  0  0  0  0  0  0  0
    0.2775   -2.7346    0.0000 C   0  0  0  0  0  0  0  0  0  0  0  0
    0.1913   -3.5551    0.0000 O   0  0  0  0  0  0  0  0  0  0  0  0
   -0.6157   -3.7267    0.0000 C   0  0  0  0  0  0  0  0  0  0  0  0
   -1.0282   -4.4411    0.0000 C   0  0  0  0  0  0  0  0  0  0  0  0
   -1.8532   -4.4411    0.0000 C   0  0  0  0  0  0  0  0  0  0  0  0
   -2.2657   -3.7267    0.0000 C   0  0  0  0  0  0  0  0  0  0  0  0
   -1.8532   -3.0122    0.0000 C   0  0  0  0  0  0  0  0  0  0  0  0
   -1.0282   -3.0122    0.0000 C   0  0  0  0  0  0  0  0  0  0  0  0
   -0.4761   -2.3991    0.0000 N   0  0  0  0  0  0  0  0  0  0  0  0
    2.4209   -2.3221    0.0000 C   0  0  0  0  0  0  0  0  0  0  0  0
    2.4209   -1.4971    0.0000 O   0  0  0  0  0  0  0  0  0  0  0  0
    3.1354   -2.7346    0.0000 N   0  0  0  0  0  0  0  0  0  0  0  0
    3.8499   -2.3221    0.0000 C   0  0  0  0  0  0  0  0  0  0  0  0
    3.9361   -1.5017    0.0000 N   0  0  0  0  0  0  0  0  0  0  0  0
    4.7431   -1.3301    0.0000 N   0  0  0  0  0  0  0  0  0  0  0  0
    5.1556   -2.0446    0.0000 C   0  0  0  0  0  0  0  0  0  0  0  0
    5.9761   -2.1308    0.0000 C   0  0  0  0  0  0  0  0  0  0  0  0
    4.6036   -2.6577    0.0000 S   0  0  0  0  0  0  0  0  0  0  0  0
  1  2  1  0  0  0  0
  2  3  1  0  0  0  0
  3  4  1  0  0  0  0
  4  5  1  0  0  0  0
  5  6  1  0  0  0  0
  6  7  1  0  0  0  0
  7  8  2  0  0  0  0
  8  9  1  0  0  0  0
  9 10  2  0  0  0  0
 10 11  1  0  0  0  0
 11 12  2  0  0  0  0
  7 12  1  0  0  0  0
 12 13  1  0  0  0  0
  5 13  2  0  0  0  0
  3 14  1  0  0  0  0
 14 15  2  0  0  0  0
 14 16  1  0  0  0  0
 16 17  1  0  0  0  0
 17 18  2  0  0  0  0
 18 19  1  0  0  0  0
 19 20  2  0  0  0  0
 20 21  1  0  0  0  0
 20 22  1  0  0  0  0
 17 22  1  0  0  0  0
M  END
> <COMPOUND_ID>
MMV611037

$$$$

  Mrv0541 04191616472D          

 21 23  0  0  0  0            999 V2000
    1.1809   -3.5477    0.0000 C   0  0  0  0  0  0  0  0  0  0  0  0
    1.4358   -2.7631    0.0000 C   0  0  0  0  0  0  0  0  0  0  0  0
    0.8838   -2.1500    0.0000 C   0  0  0  0  0  0  0  0  0  0  0  0
    1.1387   -1.3654    0.0000 N   0  0  0  0  0  0  0  0  0  0  0  0
    0.6538   -0.6979    0.0000 C   0  0  0  0  0  0  0  0  0  0  0  0
   -0.1712   -0.6979    0.0000 C   0  0  0  0  0  0  0  0  0  0  0  0
   -0.5837   -1.4124    0.0000 N   0  0  0  0  0  0  0  0  0  0  0  0
   -1.4087   -1.4124    0.0000 C   0  0  0  0  0  0  0  0  0  0  0  0
   -1.8212   -2.1269    0.0000 C   0  0  0  0  0  0  0  0  0  0  0  0
   -2.6462   -2.1269    0.0000 C   0  0  0  0  0  0  0  0  0  0  0  0
   -3.0587   -1.4124    0.0000 C   0  0  0  0  0  0  0  0  0  0  0  0
   -2.6462   -0.6979    0.0000 C   0  0  0  0  0  0  0  0  0  0  0  0
   -1.8212   -0.6979    0.0000 C   0  0  0  0  0  0  0  0  0  0  0  0
   -1.4087    0.0165    0.0000 O   0  0  0  0  0  0  0  0  0  0  0  0
    1.1387   -0.0305    0.0000 N   0  0  0  0  0  0  0  0  0  0  0  0
    1.9233   -0.2854    0.0000 C   0  0  0  0  0  0  0  0  0  0  0  0
    2.6378    0.1271    0.0000 C   0  0  0  0  0  0  0  0  0  0  0  0
    3.3523   -0.2854    0.0000 C   0  0  0  0  0  0  0  0  0  0  0  0
    3.3523   -1.1104    0.0000 C   0  0  0  0  0  0  0  0  0  0  0  0
    2.6378   -1.5229    0.0000 C   0  0  0  0  0  0  0  0  0  0  0  0
    1.9233   -1.1104    0.0000 C   0  0  0  0  0  0  0  0  0  0  0  0
  1  2  1  0  0  0  0
  2  3  1  0  0  0  0
  3  4  1  0  0  0  0
  4  5  1  0  0  0  0
  5  6  1  0  0  0  0
  6  7  1  0  0  0  0
  7  8  1  0  0  0  0
  8  9  2  0  0  0  0
  9 10  1  0  0  0  0
 10 11  2  0  0  0  0
 11 12  1  0  0  0  0
 12 13  2  0  0  0  0
  8 13  1  0  0  0  0
 13 14  1  0  0  0  0
  5 15  2  0  0  0  0
 15 16  1  0  0  0  0
 16 17  2  0  0  0  0
 17 18  1  0  0  0  0
 18 19  2  0  0  0  0
 19 20  1  0  0  0  0
 20 21  2  0  0  0  0
  4 21  1  0  0  0  0
 16 21  1  0  0  0  0
M  END
> <COMPOUND_ID>
MMV676445

$$$$

  Mrv0541 04191616472D          

 21 23  0  0  0  0            999 V2000
   -0.1712   -0.6979    0.0000 C   0  0  0  0  0  0  0  0  0  0  0  0
    0.6538   -0.6979    0.0000 C   0  0  0  0  0  0  0  0  0  0  0  0
    1.1387   -0.0305    0.0000 N   0  0  0  0  0  0  0  0  0  0  0  0
    1.9233   -0.2854    0.0000 C   0  0  0  0  0  0  0  0  0  0  0  0
    2.6378    0.1271    0.0000 C   0  0  0  0  0  0  0  0  0  0  0  0
    3.3523   -0.2854    0.0000 C   0  0  0  0  0  0  0  0  0  0  0  0
    3.3523   -1.1104    0.0000 C   0  0  0  0  0  0  0  0  0  0  0  0
    2.6378   -1.5229    0.0000 C   0  0  0  0  0  0  0  0  0  0  0  0
    1.9233   -1.1104    0.0000 N   0  0  0  0  0  0  0  0  0  0  0  0
    1.1387   -1.3654    0.0000 C   0  0  0  0  0  0  0  0  0  0  0  0
    0.8838   -2.1500    0.0000 C   0  0  0  0  0  0  0  0  0  0  0  0
    1.4358   -2.7631    0.0000 O   0  0  0  0  0  0  0  0  0  0  0  0
    0.0768   -2.3215    0.0000 N   0  0  0  0  0  0  0  0  0  0  0  0
   -0.1781   -3.1062    0.0000 C   0  0  0  0  0  0  0  0  0  0  0  0
   -0.9851   -3.2777    0.0000 C   0  0  0  0  0  0  0  0  0  0  0  0
   -1.2400   -4.0623    0.0000 C   0  0  0  0  0  0  0  0  0  0  0  0
   -2.0470   -4.2338    0.0000 C   0  0  0  0  0  0  0  0  0  0  0  0
   -2.5990   -3.6207    0.0000 C   0  0  0  0  0  0  0  0  0  0  0  0
   -3.4060   -3.7923    0.0000 Cl  0  0  0  0  0  0  0  0  0  0  0  0
   -2.3441   -2.8361    0.0000 C   0  0  0  0  0  0  0  0  0  0  0  0
   -1.5371   -2.6646    0.0000 C   0  0  0  0  0  0  0  0  0  0  0  0
  1  2  1  0  0  0  0
  2  3  1  0  0  0  0
  3  4  2  0  0  0  0
  4  5  1  0  0  0  0
  5  6  2  0  0  0  0
  6  7  1  0  0  0  0
  7  8  2  0  0  0  0
  8  9  1  0  0  0  0
  4  9  1  0  0  0  0
  9 10  1  0  0  0  0
  2 10  2  0  0  0  0
 10 11  1  0  0  0  0
 11 12  2  0  0  0  0
 11 13  1  0  0  0  0
 13 14  1  0  0  0  0
 14 15  1  0  0  0  0
 15 16  2  0  0  0  0
 16 17  1  0  0  0  0
 17 18  2  0  0  0  0
 18 19  1  0  0  0  0
 18 20  1  0  0  0  0
 20 21  2  0  0  0  0
 15 21  1  0  0  0  0
M  END
> <COMPOUND_ID>
MMV012074

$$$$

  Mrv0541 04191616472D          

 18 19  0  0  0  0            999 V2000
    2.1434   -2.8875    0.0000 C   0  0  0  0  0  0  0  0  0  0  0  0
    1.4289   -2.4750    0.0000 O   0  0  0  0  0  0  0  0  0  0  0  0
    1.4289   -1.6500    0.0000 C   0  0  0  0  0  0  0  0  0  0  0  0
    0.7145   -1.2375    0.0000 C   0  0  0  0  0  0  0  0  0  0  0  0
    0.7145   -0.4125    0.0000 C   0  0  0  0  0  0  0  0  0  0  0  0
    1.4289    0.0000    0.0000 N   0  0  0  0  0  0  0  0  0  0  0  0
    2.1434   -0.4125    0.0000 C   0  0  0  0  0  0  0  0  0  0  0  0
    2.8579    0.0000    0.0000 C   0  0  0  0  0  0  0  0  0  0  0  0
    3.5724   -0.4125    0.0000 C   0  0  0  0  0  0  0  0  0  0  0  0
    3.5724   -1.2375    0.0000 C   0  0  0  0  0  0  0  0  0  0  0  0
    4.2868   -1.6500    0.0000 C   0  0  0  0  0  0  0  0  0  0  0  0
    2.8579   -1.6500    0.0000 C   0  0  0  0  0  0  0  0  0  0  0  0
    2.8579   -2.4750    0.0000 N   0  0  0  0  0  0  0  0  0  0  0  0
    2.1434   -1.2375    0.0000 C   0  0  0  0  0  0  0  0  0  0  0  0
    0.0000    0.0000    0.0000 C   0  0  0  0  0  0  0  0  0  0  0  0
   -0.7145    0.4125    0.0000 F   0  0  0  0  0  0  0  0  0  0  0  0
    0.4125    0.7145    0.0000 F   0  0  0  0  0  0  0  0  0  0  0  0
   -0.4125   -0.7145    0.0000 F   0  0  0  0  0  0  0  0  0  0  0  0
  1  2  1  0  0  0  0
  2  3  1  0  0  0  0
  3  4  1  0  0  0  0
  4  5  2  0  0  0  0
  5  6  1  0  0  0  0
  6  7  2  0  0  0  0
  7  8  1  0  0  0  0
  8  9  2  0  0  0  0
  9 10  1  0  0  0  0
 10 11  1  0  0  0  0
 10 12  2  0  0  0  0
 12 13  1  0  0  0  0
 12 14  1  0  0  0  0
  3 14  2  0  0  0  0
  7 14  1  0  0  0  0
  5 15  1  0  0  0  0
 15 16  1  0  0  0  0
 15 17  1  0  0  0  0
 15 18  1  0  0  0  0
M  END
> <COMPOUND_ID>
MMV047015

$$$$

  Mrv0541 04191616472D          

 25 28  0  0  0  0            999 V2000
    3.4236   -2.5011    0.0000 C   0  0  0  0  0  0  0  0  0  0  0  0
    4.1381   -2.0886    0.0000 O   0  0  0  0  0  0  0  0  0  0  0  0
    4.1381   -1.2636    0.0000 C   0  0  0  0  0  0  0  0  0  0  0  0
    3.4236   -0.8511    0.0000 C   0  0  0  0  0  0  0  0  0  0  0  0
    3.4236   -0.0261    0.0000 C   0  0  0  0  0  0  0  0  0  0  0  0
    4.1381    0.3864    0.0000 C   0  0  0  0  0  0  0  0  0  0  0  0
    4.8525   -0.0261    0.0000 C   0  0  0  0  0  0  0  0  0  0  0  0
    4.8525   -0.8511    0.0000 C   0  0  0  0  0  0  0  0  0  0  0  0
    5.5670   -1.2636    0.0000 O   0  0  0  0  0  0  0  0  0  0  0  0
    6.2815   -0.8511    0.0000 C   0  0  0  0  0  0  0  0  0  0  0  0
    6.9960   -1.2636    0.0000 C   0  0  0  0  0  0  0  0  0  0  0  0
    7.7104   -0.8511    0.0000 C   0  0  0  0  0  0  0  0  0  0  0  0
    8.4249   -1.2636    0.0000 C   0  0  0  0  0  0  0  0  0  0  0  0
    9.1394   -0.8511    0.0000 N   0  0  0  0  0  0  0  0  0  0  0  0
    9.2256   -0.0307    0.0000 C   0  0  0  0  0  0  0  0  0  0  0  0
   10.0326    0.1409    0.0000 N   0  0  0  0  0  0  0  0  0  0  0  0
   10.4451   -0.5736    0.0000 C   0  0  0  0  0  0  0  0  0  0  0  0
   11.2521   -0.7451    0.0000 C   0  0  0  0  0  0  0  0  0  0  0  0
   11.5070   -1.5298    0.0000 C   0  0  0  0  0  0  0  0  0  0  0  0
   10.9550   -2.1428    0.0000 C   0  0  0  0  0  0  0  0  0  0  0  0
   10.1480   -1.9713    0.0000 C   0  0  0  0  0  0  0  0  0  0  0  0
    9.8930   -1.1867    0.0000 C   0  0  0  0  0  0  0  0  0  0  0  0
    8.6125    0.5214    0.0000 C   0  0  0  0  0  0  0  0  0  0  0  0
    7.8055    0.6929    0.0000 C   0  0  0  0  0  0  0  0  0  0  0  0
    8.3576    1.3060    0.0000 C   0  0  0  0  0  0  0  0  0  0  0  0
  1  2  1  0  0  0  0
  2  3  1  0  0  0  0
  3  4  2  0  0  0  0
  4  5  1  0  0  0  0
  5  6  2  0  0  0  0
  6  7  1  0  0  0  0
  7  8  2  0  0  0  0
  3  8  1  0  0  0  0
  8  9  1  0  0  0  0
  9 10  1  0  0  0  0
 10 11  1  0  0  0  0
 11 12  1  0  0  0  0
 12 13  1  0  0  0  0
 13 14  1  0  0  0  0
 14 15  1  0  0  0  0
 15 16  2  0  0  0  0
 16 17  1  0  0  0  0
 17 18  2  0  0  0  0
 18 19  1  0  0  0  0
 19 20  2  0  0  0  0
 20 21  1  0  0  0  0
 21 22  2  0  0  0  0
 14 22  1  0  0  0  0
 17 22  1  0  0  0  0
 15 23  1  0  0  0  0
 23 24  1  0  0  0  0
 24 25  1  0  0  0  0
 23 25  1  0  0  0  0
M  END
> <COMPOUND_ID>
MMV676474

$$$$

  Mrv0541 04191616472D          

 20 22  0  0  0  0            999 V2000
    0.8649   -3.6974    0.0000 Cl  0  0  0  0  0  0  0  0  0  0  0  0
    0.8649   -4.5224    0.0000 C   0  0  0  0  0  0  0  0  0  0  0  0
    1.5323   -5.0074    0.0000 C   0  0  0  0  0  0  0  0  0  0  0  0
    1.2774   -5.7920    0.0000 C   0  0  0  0  0  0  0  0  0  0  0  0
    0.4524   -5.7920    0.0000 C   0  0  0  0  0  0  0  0  0  0  0  0
    0.1974   -5.0074    0.0000 S   0  0  0  0  0  0  0  0  0  0  0  0
   -0.0326   -6.4594    0.0000 C   0  0  0  0  0  0  0  0  0  0  0  0
   -0.8531   -6.3732    0.0000 O   0  0  0  0  0  0  0  0  0  0  0  0
    0.3030   -7.2131    0.0000 N   0  0  0  0  0  0  0  0  0  0  0  0
   -0.1819   -7.8805    0.0000 C   0  0  0  0  0  0  0  0  0  0  0  0
    0.0730   -8.6651    0.0000 O   0  0  0  0  0  0  0  0  0  0  0  0
   -0.5944   -9.1501    0.0000 C   0  0  0  0  0  0  0  0  0  0  0  0
   -1.2619   -8.6651    0.0000 N   0  0  0  0  0  0  0  0  0  0  0  0
   -1.0069   -7.8805    0.0000 N   0  0  0  0  0  0  0  0  0  0  0  0
   -0.5944   -9.9751    0.0000 C   0  0  0  0  0  0  0  0  0  0  0  0
    0.0730  -10.4600    0.0000 C   0  0  0  0  0  0  0  0  0  0  0  0
   -0.1819  -11.2446    0.0000 C   0  0  0  0  0  0  0  0  0  0  0  0
   -1.0069  -11.2446    0.0000 C   0  0  0  0  0  0  0  0  0  0  0  0
   -1.4919  -11.9121    0.0000 Cl  0  0  0  0  0  0  0  0  0  0  0  0
   -1.2619  -10.4600    0.0000 S   0  0  0  0  0  0  0  0  0  0  0  0
  1  2  1  0  0  0  0
  2  3  2  0  0  0  0
  3  4  1  0  0  0  0
  4  5  2  0  0  0  0
  5  6  1  0  0  0  0
  2  6  1  0  0  0  0
  5  7  1  0  0  0  0
  7  8  2  0  0  0  0
  7  9  1  0  0  0  0
  9 10  1  0  0  0  0
 10 11  1  0  0  0  0
 11 12  1  0  0  0  0
 12 13  2  0  0  0  0
 13 14  1  0  0  0  0
 10 14  2  0  0  0  0
 12 15  1  0  0  0  0
 15 16  2  0  0  0  0
 16 17  1  0  0  0  0
 17 18  2  0  0  0  0
 18 19  1  0  0  0  0
 18 20  1  0  0  0  0
 15 20  1  0  0  0  0
M  END
> <COMPOUND_ID>
MMV676501

$$$$

  Mrv0541 04191616472D          

 27 30  0  0  0  0            999 V2000
    4.0668    2.3479    0.0000 C   0  0  0  0  0  0  0  0  0  0  0  0
    3.3523    1.9354    0.0000 C   0  0  0  0  0  0  0  0  0  0  0  0
    3.3523    1.1104    0.0000 C   0  0  0  0  0  0  0  0  0  0  0  0
    2.6378    0.6979    0.0000 C   0  0  0  0  0  0  0  0  0  0  0  0
    1.9233    1.1104    0.0000 C   0  0  0  0  0  0  0  0  0  0  0  0
    1.1387    0.8555    0.0000 O   0  0  0  0  0  0  0  0  0  0  0  0
    0.6538    1.5229    0.0000 C   0  0  0  0  0  0  0  0  0  0  0  0
    1.1387    2.1904    0.0000 N   0  0  0  0  0  0  0  0  0  0  0  0
    1.9233    1.9354    0.0000 C   0  0  0  0  0  0  0  0  0  0  0  0
    2.6378    2.3479    0.0000 C   0  0  0  0  0  0  0  0  0  0  0  0
   -0.1712    1.5229    0.0000 C   0  0  0  0  0  0  0  0  0  0  0  0
   -0.5837    0.8085    0.0000 C   0  0  0  0  0  0  0  0  0  0  0  0
   -1.4087    0.8085    0.0000 C   0  0  0  0  0  0  0  0  0  0  0  0
   -1.8212    0.0940    0.0000 N   0  0  0  0  0  0  0  0  0  0  0  0
   -2.6462    0.0940    0.0000 C   0  0  0  0  0  0  0  0  0  0  0  0
   -3.0587    0.8085    0.0000 O   0  0  0  0  0  0  0  0  0  0  0  0
   -3.0587   -0.6205    0.0000 C   0  0  0  0  0  0  0  0  0  0  0  0
   -3.8837   -0.6205    0.0000 C   0  0  0  0  0  0  0  0  0  0  0  0
   -4.2962   -1.3349    0.0000 C   0  0  0  0  0  0  0  0  0  0  0  0
   -5.1212   -1.3349    0.0000 C   0  0  0  0  0  0  0  0  0  0  0  0
   -5.5337   -0.6205    0.0000 C   0  0  0  0  0  0  0  0  0  0  0  0
   -5.1212    0.0940    0.0000 C   0  0  0  0  0  0  0  0  0  0  0  0
   -4.2962    0.0940    0.0000 C   0  0  0  0  0  0  0  0  0  0  0  0
   -1.8212    1.5229    0.0000 C   0  0  0  0  0  0  0  0  0  0  0  0
   -1.4087    2.2374    0.0000 C   0  0  0  0  0  0  0  0  0  0  0  0
   -0.5837    2.2374    0.0000 C   0  0  0  0  0  0  0  0  0  0  0  0
   -0.1712    2.9519    0.0000 Cl  0  0  0  0  0  0  0  0  0  0  0  0
  1  2  1  0  0  0  0
  2  3  2  0  0  0  0
  3  4  1  0  0  0  0
  4  5  2  0  0  0  0
  5  6  1  0  0  0  0
  6  7  1  0  0  0  0
  7  8  2  0  0  0  0
  8  9  1  0  0  0  0
  5  9  1  0  0  0  0
  9 10  2  0  0  0  0
  2 10  1  0  0  0  0
  7 11  1  0  0  0  0
 11 12  2  0  0  0  0
 12 13  1  0  0  0  0
 13 14  1  0  0  0  0
 14 15  1  0  0  0  0
 15 16  2  0  0  0  0
 15 17  1  0  0  0  0
 17 18  1  0  0  0  0
 18 19  2  0  0  0  0
 19 20  1  0  0  0  0
 20 21  2  0  0  0  0
 21 22  1  0  0  0  0
 22 23  2  0  0  0  0
 18 23  1  0  0  0  0
 13 24  2  0  0  0  0
 24 25  1  0  0  0  0
 25 26  2  0  0  0  0
 11 26  1  0  0  0  0
 26 27  1  0  0  0  0
M  END
> <COMPOUND_ID>
MMV676509

$$$$

  Mrv0541 04191616472D          

 27 31  0  0  0  0            999 V2000
   -0.5837    0.0165    0.0000 O   0  0  0  0  0  0  0  0  0  0  0  0
   -0.1712   -0.6979    0.0000 C   0  0  0  0  0  0  0  0  0  0  0  0
   -0.5837   -1.4124    0.0000 N   0  0  0  0  0  0  0  0  0  0  0  0
   -0.1712   -2.1269    0.0000 C   0  0  0  0  0  0  0  0  0  0  0  0
   -0.5837   -2.8414    0.0000 C   0  0  0  0  0  0  0  0  0  0  0  0
   -1.4087   -2.8414    0.0000 N   0  0  0  0  0  0  0  0  0  0  0  0
   -1.8212   -3.5558    0.0000 C   0  0  0  0  0  0  0  0  0  0  0  0
   -2.6462   -3.5558    0.0000 C   0  0  0  0  0  0  0  0  0  0  0  0
   -3.0587   -4.2703    0.0000 C   0  0  0  0  0  0  0  0  0  0  0  0
   -3.8837   -4.2703    0.0000 C   0  0  0  0  0  0  0  0  0  0  0  0
   -4.2962   -3.5558    0.0000 C   0  0  0  0  0  0  0  0  0  0  0  0
   -5.1032   -3.3843    0.0000 O   0  0  0  0  0  0  0  0  0  0  0  0
   -5.1894   -2.5638    0.0000 C   0  0  0  0  0  0  0  0  0  0  0  0
   -4.4357   -2.2283    0.0000 O   0  0  0  0  0  0  0  0  0  0  0  0
   -3.8837   -2.8414    0.0000 C   0  0  0  0  0  0  0  0  0  0  0  0
   -3.0587   -2.8414    0.0000 C   0  0  0  0  0  0  0  0  0  0  0  0
   -1.8212   -2.1269    0.0000 C   0  0  0  0  0  0  0  0  0  0  0  0
   -1.4087   -1.4124    0.0000 C   0  0  0  0  0  0  0  0  0  0  0  0
    0.6538   -0.6979    0.0000 C   0  0  0  0  0  0  0  0  0  0  0  0
    1.1387   -0.0305    0.0000 O   0  0  0  0  0  0  0  0  0  0  0  0
    1.9233   -0.2854    0.0000 C   0  0  0  0  0  0  0  0  0  0  0  0
    2.6378    0.1271    0.0000 C   0  0  0  0  0  0  0  0  0  0  0  0
    3.3523   -0.2854    0.0000 C   0  0  0  0  0  0  0  0  0  0  0  0
    3.3523   -1.1104    0.0000 C   0  0  0  0  0  0  0  0  0  0  0  0
    2.6378   -1.5229    0.0000 C   0  0  0  0  0  0  0  0  0  0  0  0
    1.9233   -1.1104    0.0000 C   0  0  0  0  0  0  0  0  0  0  0  0
    1.1387   -1.3654    0.0000 C   0  0  0  0  0  0  0  0  0  0  0  0
  1  2  2  0  0  0  0
  2  3  1  0  0  0  0
  3  4  1  0  0  0  0
  4  5  1  0  0  0  0
  5  6  1  0  0  0  0
  6  7  1  0  0  0  0
  7  8  1  0  0  0  0
  8  9  2  0  0  0  0
  9 10  1  0  0  0  0
 10 11  2  0  0  0  0
 11 12  1  0  0  0  0
 12 13  1  0  0  0  0
 13 14  1  0  0  0  0
 14 15  1  0  0  0  0
 11 15  1  0  0  0  0
 15 16  2  0  0  0  0
  8 16  1  0  0  0  0
  6 17  1  0  0  0  0
 17 18  1  0  0  0  0
  3 18  1  0  0  0  0
  2 19  1  0  0  0  0
 19 20  1  0  0  0  0
 20 21  1  0  0  0  0
 21 22  2  0  0  0  0
 22 23  1  0  0  0  0
 23 24  2  0  0  0  0
 24 25  1  0  0  0  0
 25 26  2  0  0  0  0
 21 26  1  0  0  0  0
 26 27  1  0  0  0  0
 19 27  2  0  0  0  0
M  END
> <COMPOUND_ID>
MMV676520

$$$$

  Mrv0541 04191616472D          

 24 26  0  0  0  0            999 V2000
    0.7265   -1.8416    0.0000 C   0  0  0  0  0  0  0  0  0  0  0  0
    0.7265   -2.6666    0.0000 C   0  0  0  0  0  0  0  0  0  0  0  0
    1.3939   -3.1515    0.0000 N   0  0  0  0  0  0  0  0  0  0  0  0
    1.1390   -3.9361    0.0000 N   0  0  0  0  0  0  0  0  0  0  0  0
    1.6239   -4.6035    0.0000 C   0  0  0  0  0  0  0  0  0  0  0  0
    2.4444   -4.5173    0.0000 C   0  0  0  0  0  0  0  0  0  0  0  0
    2.7799   -3.7636    0.0000 C   0  0  0  0  0  0  0  0  0  0  0  0
    3.6004   -3.6774    0.0000 C   0  0  0  0  0  0  0  0  0  0  0  0
    4.0853   -4.3448    0.0000 C   0  0  0  0  0  0  0  0  0  0  0  0
    3.7498   -5.0985    0.0000 C   0  0  0  0  0  0  0  0  0  0  0  0
    2.9293   -5.1847    0.0000 C   0  0  0  0  0  0  0  0  0  0  0  0
    0.3140   -3.9361    0.0000 C   0  0  0  0  0  0  0  0  0  0  0  0
   -0.1710   -4.6035    0.0000 Cl  0  0  0  0  0  0  0  0  0  0  0  0
    0.0590   -3.1515    0.0000 C   0  0  0  0  0  0  0  0  0  0  0  0
   -0.7256   -2.8965    0.0000 C   0  0  0  0  0  0  0  0  0  0  0  0
   -0.8971   -2.0896    0.0000 O   0  0  0  0  0  0  0  0  0  0  0  0
   -1.3387   -3.4486    0.0000 N   0  0  0  0  0  0  0  0  0  0  0  0
   -2.1233   -3.1936    0.0000 C   0  0  0  0  0  0  0  0  0  0  0  0
   -2.6934   -3.7899    0.0000 C   0  0  0  0  0  0  0  0  0  0  0  0
   -3.5151   -3.7160    0.0000 C   0  0  0  0  0  0  0  0  0  0  0  0
   -3.9696   -3.0275    0.0000 C   0  0  0  0  0  0  0  0  0  0  0  0
   -3.7147   -2.2428    0.0000 C   0  0  0  0  0  0  0  0  0  0  0  0
   -2.9423   -1.9530    0.0000 C   0  0  0  0  0  0  0  0  0  0  0  0
   -2.2341   -2.3761    0.0000 C   0  0  0  0  0  0  0  0  0  0  0  0
  1  2  1  0  0  0  0
  2  3  2  0  0  0  0
  3  4  1  0  0  0  0
  4  5  1  0  0  0  0
  5  6  1  0  0  0  0
  6  7  2  0  0  0  0
  7  8  1  0  0  0  0
  8  9  2  0  0  0  0
  9 10  1  0  0  0  0
 10 11  2  0  0  0  0
  6 11  1  0  0  0  0
  4 12  1  0  0  0  0
 12 13  1  0  0  0  0
 12 14  2  0  0  0  0
  2 14  1  0  0  0  0
 14 15  1  0  0  0  0
 15 16  2  0  0  0  0
 15 17  1  0  0  0  0
 17 18  1  0  0  0  0
 18 19  1  0  0  0  0
 19 20  1  0  0  0  0
 20 21  1  0  0  0  0
 21 22  1  0  0  0  0
 22 23  1  0  0  0  0
 23 24  1  0  0  0  0
 18 24  1  0  0  0  0
M  END
> <COMPOUND_ID>
MMV063404

$$$$

  Mrv0541 04191616472D          

 20 22  0  0  0  0            999 V2000
    1.4289   -2.4750    0.0000 C   0  0  0  0  0  0  0  0  0  0  0  0
    1.4289   -1.6500    0.0000 C   0  0  0  0  0  0  0  0  0  0  0  0
    0.7145   -1.2375    0.0000 N   0  0  0  0  0  0  0  0  0  0  0  0
    0.7145   -0.4125    0.0000 N   0  0  0  0  0  0  0  0  0  0  0  0
    1.4289    0.0000    0.0000 C   0  0  0  0  0  0  0  0  0  0  0  0
    1.4289    0.8250    0.0000 N   0  0  0  0  0  0  0  0  0  0  0  0
    0.7145    1.2375    0.0000 C   0  0  0  0  0  0  0  0  0  0  0  0
    0.7145    2.0625    0.0000 C   0  0  0  0  0  0  0  0  0  0  0  0
    0.0000    2.4750    0.0000 C   0  0  0  0  0  0  0  0  0  0  0  0
    0.0000    3.3000    0.0000 C   0  0  0  0  0  0  0  0  0  0  0  0
    0.7145    3.7125    0.0000 C   0  0  0  0  0  0  0  0  0  0  0  0
    1.4289    3.3000    0.0000 C   0  0  0  0  0  0  0  0  0  0  0  0
    2.1434    3.7125    0.0000 Cl  0  0  0  0  0  0  0  0  0  0  0  0
    1.4289    2.4750    0.0000 C   0  0  0  0  0  0  0  0  0  0  0  0
    2.1434   -0.4125    0.0000 C   0  0  0  0  0  0  0  0  0  0  0  0
    2.8579    0.0000    0.0000 C   0  0  0  0  0  0  0  0  0  0  0  0
    3.5724   -0.4125    0.0000 C   0  0  0  0  0  0  0  0  0  0  0  0
    3.5724   -1.2375    0.0000 C   0  0  0  0  0  0  0  0  0  0  0  0
    2.8579   -1.6500    0.0000 C   0  0  0  0  0  0  0  0  0  0  0  0
    2.1434   -1.2375    0.0000 C   0  0  0  0  0  0  0  0  0  0  0  0
  1  2  1  0  0  0  0
  2  3  1  0  0  0  0
  3  4  2  0  0  0  0
  4  5  1  0  0  0  0
  5  6  1  0  0  0  0
  6  7  1  0  0  0  0
  7  8  1  0  0  0  0
  8  9  2  0  0  0  0
  9 10  1  0  0  0  0
 10 11  2  0  0  0  0
 11 12  1  0  0  0  0
 12 13  1  0  0  0  0
 12 14  2  0  0  0  0
  8 14  1  0  0  0  0
  5 15  2  0  0  0  0
 15 16  1  0  0  0  0
 16 17  2  0  0  0  0
 17 18  1  0  0  0  0
 18 19  2  0  0  0  0
 19 20  1  0  0  0  0
  2 20  2  0  0  0  0
 15 20  1  0  0  0  0
M  END
> <COMPOUND_ID>
MMV676555

$$$$

  Mrv0541 04191616472D          

 24 26  0  0  0  0            999 V2000
    0.0000   -4.1250    0.0000 N   0  0  0  0  0  0  0  0  0  0  0  0
   -0.7145   -3.7125    0.0000 C   0  0  0  0  0  0  0  0  0  0  0  0
   -1.4289   -4.1250    0.0000 O   0  0  0  0  0  0  0  0  0  0  0  0
   -0.7145   -2.8875    0.0000 C   0  0  0  0  0  0  0  0  0  0  0  0
   -1.4289   -2.4750    0.0000 C   0  0  0  0  0  0  0  0  0  0  0  0
   -1.4289   -1.6500    0.0000 C   0  0  0  0  0  0  0  0  0  0  0  0
   -0.7145   -1.2375    0.0000 C   0  0  0  0  0  0  0  0  0  0  0  0
    0.0000   -1.6500    0.0000 C   0  0  0  0  0  0  0  0  0  0  0  0
    0.0000   -2.4750    0.0000 C   0  0  0  0  0  0  0  0  0  0  0  0
    0.7145   -2.8875    0.0000 O   0  0  0  0  0  0  0  0  0  0  0  0
    1.4289   -2.4750    0.0000 C   0  0  0  0  0  0  0  0  0  0  0  0
    2.1434   -2.8875    0.0000 C   0  0  0  0  0  0  0  0  0  0  0  0
    2.8579   -2.4750    0.0000 O   0  0  0  0  0  0  0  0  0  0  0  0
    3.5724   -2.8875    0.0000 C   0  0  0  0  0  0  0  0  0  0  0  0
    4.2868   -2.4750    0.0000 C   0  0  0  0  0  0  0  0  0  0  0  0
    5.0013   -2.8875    0.0000 C   0  0  0  0  0  0  0  0  0  0  0  0
    5.0013   -3.7125    0.0000 C   0  0  0  0  0  0  0  0  0  0  0  0
    4.2868   -4.1250    0.0000 C   0  0  0  0  0  0  0  0  0  0  0  0
    3.5724   -3.7125    0.0000 C   0  0  0  0  0  0  0  0  0  0  0  0
   -2.1434   -1.2375    0.0000 C   0  0  0  0  0  0  0  0  0  0  0  0
   -2.8971   -1.5731    0.0000 C   0  0  0  0  0  0  0  0  0  0  0  0
   -3.4491   -0.9600    0.0000 C   0  0  0  0  0  0  0  0  0  0  0  0
   -3.0366   -0.2455    0.0000 S   0  0  0  0  0  0  0  0  0  0  0  0
   -2.2296   -0.4170    0.0000 C   0  0  0  0  0  0  0  0  0  0  0  0
  1  2  1  0  0  0  0
  2  3  2  0  0  0  0
  2  4  1  0  0  0  0
  4  5  2  0  0  0  0
  5  6  1  0  0  0  0
  6  7  2  0  0  0  0
  7  8  1  0  0  0  0
  8  9  2  0  0  0  0
  4  9  1  0  0  0  0
  9 10  1  0  0  0  0
 10 11  1  0  0  0  0
 11 12  1  0  0  0  0
 12 13  1  0  0  0  0
 13 14  1  0  0  0  0
 14 15  2  0  0  0  0
 15 16  1  0  0  0  0
 16 17  2  0  0  0  0
 17 18  1  0  0  0  0
 18 19  2  0  0  0  0
 14 19  1  0  0  0  0
  6 20  1  0  0  0  0
 20 21  1  0  0  0  0
 21 22  2  0  0  0  0
 22 23  1  0  0  0  0
 23 24  1  0  0  0  0
 20 24  2  0  0  0  0
M  END
> <COMPOUND_ID>
MMV687138

$$$$

  Mrv0541 04191616472D          

 24 27  0  0  0  0            999 V2000
   -2.5990   -3.6207    0.0000 C   0  0  0  0  0  0  0  0  0  0  0  0
   -2.3441   -2.8361    0.0000 O   0  0  0  0  0  0  0  0  0  0  0  0
   -1.5371   -2.6646    0.0000 C   0  0  0  0  0  0  0  0  0  0  0  0
   -1.2822   -1.8800    0.0000 C   0  0  0  0  0  0  0  0  0  0  0  0
   -0.4752   -1.7084    0.0000 C   0  0  0  0  0  0  0  0  0  0  0  0
    0.0768   -2.3215    0.0000 C   0  0  0  0  0  0  0  0  0  0  0  0
    0.8838   -2.1500    0.0000 C   0  0  0  0  0  0  0  0  0  0  0  0
    1.1387   -1.3654    0.0000 N   0  0  0  0  0  0  0  0  0  0  0  0
    0.6538   -0.6979    0.0000 C   0  0  0  0  0  0  0  0  0  0  0  0
    1.1387   -0.0305    0.0000 N   0  0  0  0  0  0  0  0  0  0  0  0
    1.9233   -0.2854    0.0000 C   0  0  0  0  0  0  0  0  0  0  0  0
    2.6378    0.1271    0.0000 C   0  0  0  0  0  0  0  0  0  0  0  0
    3.3523   -0.2854    0.0000 N   0  0  0  0  0  0  0  0  0  0  0  0
    3.3523   -1.1104    0.0000 C   0  0  0  0  0  0  0  0  0  0  0  0
    4.0668   -1.5229    0.0000 Cl  0  0  0  0  0  0  0  0  0  0  0  0
    2.6378   -1.5229    0.0000 N   0  0  0  0  0  0  0  0  0  0  0  0
    1.9233   -1.1104    0.0000 C   0  0  0  0  0  0  0  0  0  0  0  0
    2.6378    0.9521    0.0000 C   0  0  0  0  0  0  0  0  0  0  0  0
    1.9704    1.4370    0.0000 O   0  0  0  0  0  0  0  0  0  0  0  0
    2.2253    2.2216    0.0000 C   0  0  0  0  0  0  0  0  0  0  0  0
    3.0503    2.2216    0.0000 C   0  0  0  0  0  0  0  0  0  0  0  0
    3.3053    1.4370    0.0000 C   0  0  0  0  0  0  0  0  0  0  0  0
   -0.1781   -3.1062    0.0000 C   0  0  0  0  0  0  0  0  0  0  0  0
   -0.9851   -3.2777    0.0000 C   0  0  0  0  0  0  0  0  0  0  0  0
  1  2  1  0  0  0  0
  2  3  1  0  0  0  0
  3  4  2  0  0  0  0
  4  5  1  0  0  0  0
  5  6  2  0  0  0  0
  6  7  1  0  0  0  0
  7  8  1  0  0  0  0
  8  9  1  0  0  0  0
  9 10  2  0  0  0  0
 10 11  1  0  0  0  0
 11 12  2  0  0  0  0
 12 13  1  0  0  0  0
 13 14  2  0  0  0  0
 14 15  1  0  0  0  0
 14 16  1  0  0  0  0
 16 17  2  0  0  0  0
  8 17  1  0  0  0  0
 11 17  1  0  0  0  0
 12 18  1  0  0  0  0
 18 19  1  0  0  0  0
 19 20  1  0  0  0  0
 20 21  2  0  0  0  0
 21 22  1  0  0  0  0
 18 22  2  0  0  0  0
  6 23  1  0  0  0  0
 23 24  2  0  0  0  0
  3 24  1  0  0  0  0
M  END
> <COMPOUND_ID>
MMV687170

$$$$

  Mrv0541 04191616472D          

 26 28  0  0  0  0            999 V2000
   -1.4289   -0.8250    0.0000 C   0  0  0  0  0  0  0  0  0  0  0  0
   -0.7145   -0.4125    0.0000 O   0  0  0  0  0  0  0  0  0  0  0  0
   -0.7145    0.4125    0.0000 C   0  0  0  0  0  0  0  0  0  0  0  0
   -1.4289    0.8250    0.0000 C   0  0  0  0  0  0  0  0  0  0  0  0
   -1.4289    1.6500    0.0000 C   0  0  0  0  0  0  0  0  0  0  0  0
   -0.7145    2.0625    0.0000 C   0  0  0  0  0  0  0  0  0  0  0  0
   -0.7145    2.8875    0.0000 N   0  0  0  0  0  0  0  0  0  0  0  0
   -0.0000    3.3000    0.0000 C   0  0  0  0  0  0  0  0  0  0  0  0
    0.0000    4.1250    0.0000 C   0  0  0  0  0  0  0  0  0  0  0  0
    0.7145    2.8875    0.0000 C   0  0  0  0  0  0  0  0  0  0  0  0
    0.7145    2.0625    0.0000 C   0  0  0  0  0  0  0  0  0  0  0  0
    1.4289    1.6500    0.0000 O   0  0  0  0  0  0  0  0  0  0  0  0
    2.1434    2.0625    0.0000 C   0  0  0  0  0  0  0  0  0  0  0  0
    2.8579    1.6500    0.0000 C   0  0  0  0  0  0  0  0  0  0  0  0
    2.8579    0.8250    0.0000 O   0  0  0  0  0  0  0  0  0  0  0  0
    3.5724    2.0625    0.0000 N   0  0  0  0  0  0  0  0  0  0  0  0
    3.5724    2.8875    0.0000 C   0  0  0  0  0  0  0  0  0  0  0  0
    2.8579    3.3000    0.0000 C   0  0  0  0  0  0  0  0  0  0  0  0
    2.8579    4.1250    0.0000 C   0  0  0  0  0  0  0  0  0  0  0  0
    3.5724    4.5375    0.0000 C   0  0  0  0  0  0  0  0  0  0  0  0
    4.2868    4.1250    0.0000 C   0  0  0  0  0  0  0  0  0  0  0  0
    4.2868    3.3000    0.0000 C   0  0  0  0  0  0  0  0  0  0  0  0
    5.0013    2.8875    0.0000 O   0  0  0  0  0  0  0  0  0  0  0  0
    5.0013    2.0625    0.0000 C   0  0  0  0  0  0  0  0  0  0  0  0
   -0.0000    1.6500    0.0000 C   0  0  0  0  0  0  0  0  0  0  0  0
    0.0000    0.8250    0.0000 C   0  0  0  0  0  0  0  0  0  0  0  0
  1  2  1  0  0  0  0
  2  3  1  0  0  0  0
  3  4  2  0  0  0  0
  4  5  1  0  0  0  0
  5  6  2  0  0  0  0
  6  7  1  0  0  0  0
  7  8  2  0  0  0  0
  8  9  1  0  0  0  0
  8 10  1  0  0  0  0
 10 11  2  0  0  0  0
 11 12  1  0  0  0  0
 12 13  1  0  0  0  0
 13 14  1  0  0  0  0
 14 15  2  0  0  0  0
 14 16  1  0  0  0  0
 16 17  1  0  0  0  0
 17 18  2  0  0  0  0
 18 19  1  0  0  0  0
 19 20  2  0  0  0  0
 20 21  1  0  0  0  0
 21 22  2  0  0  0  0
 17 22  1  0  0  0  0
 22 23  1  0  0  0  0
 23 24  1  0  0  0  0
 11 25  1  0  0  0  0
  6 25  1  0  0  0  0
 25 26  2  0  0  0  0
  3 26  1  0  0  0  0
M  END
> <COMPOUND_ID>
MMV687188

$$$$

  Mrv0541 04191616472D          

 24 26  0  0  0  0            999 V2000
   -1.8566    0.0354    0.0000 C   0  0  0  0  0  0  0  0  0  0  0  0
   -2.4535   -0.5341    0.0000 C   0  0  0  0  0  0  0  0  0  0  0  0
   -3.2451   -0.3019    0.0000 C   0  0  0  0  0  0  0  0  0  0  0  0
   -3.8420   -0.8715    0.0000 C   0  0  0  0  0  0  0  0  0  0  0  0
   -3.6472   -1.6731    0.0000 C   0  0  0  0  0  0  0  0  0  0  0  0
   -4.2441   -2.2427    0.0000 C   0  0  0  0  0  0  0  0  0  0  0  0
   -4.0493   -3.0443    0.0000 C   0  0  0  0  0  0  0  0  0  0  0  0
   -3.2577   -3.2765    0.0000 C   0  0  0  0  0  0  0  0  0  0  0  0
   -2.6608   -2.7070    0.0000 N   0  0  0  0  0  0  0  0  0  0  0  0
   -1.8691   -2.9391    0.0000 C   0  0  0  0  0  0  0  0  0  0  0  0
   -1.2722   -2.3696    0.0000 C   0  0  0  0  0  0  0  0  0  0  0  0
   -0.4806   -2.6017    0.0000 N   0  0  0  0  0  0  0  0  0  0  0  0
    0.1163   -2.0322    0.0000 C   0  0  0  0  0  0  0  0  0  0  0  0
    0.8517   -1.6585    0.0000 C   0  0  0  0  0  0  0  0  0  0  0  0
    0.8517   -0.9111    0.0000 C   0  0  0  0  0  0  0  0  0  0  0  0
    1.3012   -0.1208    0.0000 C   0  0  0  0  0  0  0  0  0  0  0  0
    2.0368   -0.4945    0.0000 C   0  0  0  0  0  0  0  0  0  0  0  0
    2.0368   -1.2419    0.0000 C   0  0  0  0  0  0  0  0  0  0  0  0
    1.3012   -1.6156    0.0000 C   0  0  0  0  0  0  0  0  0  0  0  0
    0.5657   -1.2419    0.0000 C   0  0  0  0  0  0  0  0  0  0  0  0
    0.5657   -0.4945    0.0000 C   0  0  0  0  0  0  0  0  0  0  0  0
    1.5873   -2.0322    0.0000 C   0  0  0  0  0  0  0  0  0  0  0  0
   -5.0358   -2.0105    0.0000 C   0  0  0  0  0  0  0  0  0  0  0  0
   -2.2587   -1.3358    0.0000 C   0  0  0  0  0  0  0  0  0  0  0  0
  1  2  1  0  0  0  0
  2  3  2  0  0  0  0
  3  4  1  0  0  0  0
  4  5  1  0  0  0  0
  5  6  1  0  0  0  0
  6  7  2  0  0  0  0
  7  8  1  0  0  0  0
  8  9  1  0  0  0  0
  9 10  1  0  0  0  0
 10 11  1  0  0  0  0
 11 12  1  0  0  0  0
 12 13  1  0  0  0  0
 13 14  1  0  0  0  0
 14 22  1  0  0  0  0
 15 16  1  0  0  0  0
 16 17  1  0  0  0  0
 18 22  1  0  0  0  0
 18 19  1  0  0  0  0
 19 20  1  0  0  0  0
 13 20  1  0  0  0  0
 16 21  1  0  0  0  0
 20 21  1  0  0  0  0
 17 18  1  0  0  0  0
 14 15  1  0  0  0  0
  6 23  1  0  0  0  0
  2 24  1  0  0  0  0
M  END
> <COMPOUND_ID>
MMV687273

$$$$

  Mrv0541 04191616472D          

 25 27  0  0  0  0            999 V2000
   -0.9962   -0.6979    0.0000 F   0  0  0  0  0  0  0  0  0  0  0  0
   -0.1712   -0.6979    0.0000 C   0  0  0  0  0  0  0  0  0  0  0  0
   -0.1712   -1.5229    0.0000 F   0  0  0  0  0  0  0  0  0  0  0  0
   -0.1712    0.1271    0.0000 F   0  0  0  0  0  0  0  0  0  0  0  0
    0.6538   -0.6979    0.0000 C   0  0  0  0  0  0  0  0  0  0  0  0
    1.1387   -0.0305    0.0000 N   0  0  0  0  0  0  0  0  0  0  0  0
    1.9233   -0.2854    0.0000 C   0  0  0  0  0  0  0  0  0  0  0  0
    2.6378    0.1271    0.0000 C   0  0  0  0  0  0  0  0  0  0  0  0
    3.3523   -0.2854    0.0000 C   0  0  0  0  0  0  0  0  0  0  0  0
    3.3523   -1.1104    0.0000 C   0  0  0  0  0  0  0  0  0  0  0  0
    2.6378   -1.5229    0.0000 C   0  0  0  0  0  0  0  0  0  0  0  0
    1.9233   -1.1104    0.0000 N   0  0  0  0  0  0  0  0  0  0  0  0
    1.1387   -1.3654    0.0000 C   0  0  0  0  0  0  0  0  0  0  0  0
    0.8838   -2.1500    0.0000 C   0  0  0  0  0  0  0  0  0  0  0  0
    1.4358   -2.7631    0.0000 O   0  0  0  0  0  0  0  0  0  0  0  0
    0.0768   -2.3215    0.0000 N   0  0  0  0  0  0  0  0  0  0  0  0
   -0.1781   -3.1062    0.0000 C   0  0  0  0  0  0  0  0  0  0  0  0
   -0.9851   -3.2777    0.0000 C   0  0  0  0  0  0  0  0  0  0  0  0
   -1.2400   -4.0623    0.0000 C   0  0  0  0  0  0  0  0  0  0  0  0
   -2.0470   -4.2338    0.0000 C   0  0  0  0  0  0  0  0  0  0  0  0
   -2.3020   -5.0184    0.0000 Cl  0  0  0  0  0  0  0  0  0  0  0  0
   -2.5990   -3.6207    0.0000 C   0  0  0  0  0  0  0  0  0  0  0  0
   -2.3441   -2.8361    0.0000 C   0  0  0  0  0  0  0  0  0  0  0  0
   -2.8961   -2.2230    0.0000 Cl  0  0  0  0  0  0  0  0  0  0  0  0
   -1.5371   -2.6646    0.0000 C   0  0  0  0  0  0  0  0  0  0  0  0
  1  2  1  0  0  0  0
  2  3  1  0  0  0  0
  2  4  1  0  0  0  0
  2  5  1  0  0  0  0
  5  6  1  0  0  0  0
  6  7  2  0  0  0  0
  7  8  1  0  0  0  0
  8  9  2  0  0  0  0
  9 10  1  0  0  0  0
 10 11  2  0  0  0  0
 11 12  1  0  0  0  0
  7 12  1  0  0  0  0
 12 13  1  0  0  0  0
  5 13  2  0  0  0  0
 13 14  1  0  0  0  0
 14 15  2  0  0  0  0
 14 16  1  0  0  0  0
 16 17  1  0  0  0  0
 17 18  1  0  0  0  0
 18 19  2  0  0  0  0
 19 20  1  0  0  0  0
 20 21  1  0  0  0  0
 20 22  2  0  0  0  0
 22 23  1  0  0  0  0
 23 24  1  0  0  0  0
 23 25  2  0  0  0  0
 18 25  1  0  0  0  0
M  END
> <COMPOUND_ID>
MMV687699

$$$$

  Mrv0541 04191616472D          

 28 31  0  0  0  0            999 V2000
   -3.5724   -1.2375    0.0000 C   0  0  0  0  0  0  0  0  0  0  0  0
   -2.8579   -1.6500    0.0000 C   0  0  0  0  0  0  0  0  0  0  0  0
   -2.1434   -1.2375    0.0000 C   0  0  0  0  0  0  0  0  0  0  0  0
   -1.4289   -1.6500    0.0000 C   0  0  0  0  0  0  0  0  0  0  0  0
   -0.7145   -1.2375    0.0000 O   0  0  0  0  0  0  0  0  0  0  0  0
    0.0000   -1.6500    0.0000 C   0  0  0  0  0  0  0  0  0  0  0  0
    0.0000   -2.4750    0.0000 O   0  0  0  0  0  0  0  0  0  0  0  0
    0.7145   -1.2375    0.0000 N   0  0  0  0  0  0  0  0  0  0  0  0
    0.7145   -0.4125    0.0000 C   0  0  0  0  0  0  0  0  0  0  0  0
    0.0000   -0.0000    0.0000 C   0  0  0  0  0  0  0  0  0  0  0  0
    0.0000    0.8250    0.0000 C   0  0  0  0  0  0  0  0  0  0  0  0
   -0.6131    1.3770    0.0000 N   0  0  0  0  0  0  0  0  0  0  0  0
   -0.2775    2.1307    0.0000 C   0  0  0  0  0  0  0  0  0  0  0  0
    0.5429    2.0445    0.0000 N   0  0  0  0  0  0  0  0  0  0  0  0
    0.7145    1.2375    0.0000 C   0  0  0  0  0  0  0  0  0  0  0  0
    1.4289    0.8250    0.0000 C   0  0  0  0  0  0  0  0  0  0  0  0
    1.4289    0.0000    0.0000 C   0  0  0  0  0  0  0  0  0  0  0  0
    2.1434   -0.4125    0.0000 N   0  0  0  0  0  0  0  0  0  0  0  0
    2.8971   -0.0769    0.0000 C   0  0  0  0  0  0  0  0  0  0  0  0
    3.4491   -0.6900    0.0000 C   0  0  0  0  0  0  0  0  0  0  0  0
    3.0366   -1.4045    0.0000 C   0  0  0  0  0  0  0  0  0  0  0  0
    2.2296   -1.2330    0.0000 C   0  0  0  0  0  0  0  0  0  0  0  0
   -0.6900    2.8452    0.0000 C   0  0  0  0  0  0  0  0  0  0  0  0
   -1.5150    2.8452    0.0000 C   0  0  0  0  0  0  0  0  0  0  0  0
   -1.9275    3.5596    0.0000 C   0  0  0  0  0  0  0  0  0  0  0  0
   -1.5150    4.2741    0.0000 C   0  0  0  0  0  0  0  0  0  0  0  0
   -0.6900    4.2741    0.0000 C   0  0  0  0  0  0  0  0  0  0  0  0
   -0.2775    3.5596    0.0000 C   0  0  0  0  0  0  0  0  0  0  0  0
  1  2  1  0  0  0  0
  2  3  1  0  0  0  0
  3  4  1  0  0  0  0
  4  5  1  0  0  0  0
  5  6  1  0  0  0  0
  6  7  2  0  0  0  0
  6  8  1  0  0  0  0
  8  9  1  0  0  0  0
  9 10  1  0  0  0  0
 10 11  2  0  0  0  0
 11 12  1  0  0  0  0
 12 13  2  0  0  0  0
 13 14  1  0  0  0  0
 14 15  1  0  0  0  0
 11 15  1  0  0  0  0
 15 16  2  0  0  0  0
 16 17  1  0  0  0  0
  9 17  2  0  0  0  0
 17 18  1  0  0  0  0
 18 19  1  0  0  0  0
 19 20  1  0  0  0  0
 20 21  1  0  0  0  0
 21 22  1  0  0  0  0
 18 22  1  0  0  0  0
 13 23  1  0  0  0  0
 23 24  1  0  0  0  0
 24 25  1  0  0  0  0
 25 26  1  0  0  0  0
 26 27  1  0  0  0  0
 27 28  1  0  0  0  0
 23 28  1  0  0  0  0
M  END
> <COMPOUND_ID>
MMV687730

$$$$

  Mrv0541 04191616472D          

 27 29  0  0  0  0            999 V2000
    2.8579   -1.6500    0.0000 C   0  0  0  0  0  0  0  0  0  0  0  0
    2.8579   -2.4750    0.0000 C   0  0  0  0  0  0  0  0  0  0  0  0
    3.5724   -2.8875    0.0000 C   0  0  0  0  0  0  0  0  0  0  0  0
    3.5724   -3.7125    0.0000 C   0  0  0  0  0  0  0  0  0  0  0  0
    4.2868   -4.1250    0.0000 N   0  0  0  0  0  0  0  0  0  0  0  0
    5.0013   -3.7125    0.0000 C   0  0  0  0  0  0  0  0  0  0  0  0
    5.7158   -4.1250    0.0000 C   0  0  0  0  0  0  0  0  0  0  0  0
    6.4302   -3.7125    0.0000 C   0  0  0  0  0  0  0  0  0  0  0  0
    6.4302   -2.8875    0.0000 C   0  0  0  0  0  0  0  0  0  0  0  0
    7.1447   -2.4750    0.0000 C   0  0  0  0  0  0  0  0  0  0  0  0
    7.8592   -2.8875    0.0000 C   0  0  0  0  0  0  0  0  0  0  0  0
    7.8592   -3.7125    0.0000 C   0  0  0  0  0  0  0  0  0  0  0  0
    7.1447   -4.1250    0.0000 C   0  0  0  0  0  0  0  0  0  0  0  0
    2.8579   -4.1250    0.0000 N   0  0  0  0  0  0  0  0  0  0  0  0
    2.1434   -3.7125    0.0000 C   0  0  0  0  0  0  0  0  0  0  0  0
    1.4289   -4.1250    0.0000 N   0  0  0  0  0  0  0  0  0  0  0  0
    0.7145   -3.7125    0.0000 C   0  0  0  0  0  0  0  0  0  0  0  0
    0.7145   -2.8875    0.0000 N   0  0  0  0  0  0  0  0  0  0  0  0
    0.0000   -4.1250    0.0000 N   0  0  0  0  0  0  0  0  0  0  0  0
   -0.7145   -3.7125    0.0000 C   0  0  0  0  0  0  0  0  0  0  0  0
   -1.4289   -4.1250    0.0000 C   0  0  0  0  0  0  0  0  0  0  0  0
   -2.1434   -3.7125    0.0000 C   0  0  0  0  0  0  0  0  0  0  0  0
   -2.1434   -2.8875    0.0000 C   0  0  0  0  0  0  0  0  0  0  0  0
   -2.8579   -2.4750    0.0000 Cl  0  0  0  0  0  0  0  0  0  0  0  0
   -1.4289   -2.4750    0.0000 C   0  0  0  0  0  0  0  0  0  0  0  0
   -0.7145   -2.8875    0.0000 C   0  0  0  0  0  0  0  0  0  0  0  0
    2.1434   -2.8875    0.0000 N   0  0  0  0  0  0  0  0  0  0  0  0
  1  2  1  0  0  0  0
  2  3  2  0  0  0  0
  3  4  1  0  0  0  0
  4  5  1  0  0  0  0
  5  6  1  0  0  0  0
  6  7  1  0  0  0  0
  7  8  1  0  0  0  0
  8  9  2  0  0  0  0
  9 10  1  0  0  0  0
 10 11  2  0  0  0  0
 11 12  1  0  0  0  0
 12 13  2  0  0  0  0
  8 13  1  0  0  0  0
  4 14  2  0  0  0  0
 14 15  1  0  0  0  0
 15 16  1  0  0  0  0
 16 17  1  0  0  0  0
 17 18  2  0  0  0  0
 17 19  1  0  0  0  0
 19 20  1  0  0  0  0
 20 21  2  0  0  0  0
 21 22  1  0  0  0  0
 22 23  2  0  0  0  0
 23 24  1  0  0  0  0
 23 25  1  0  0  0  0
 25 26  2  0  0  0  0
 20 26  1  0  0  0  0
 15 27  2  0  0  0  0
  2 27  1  0  0  0  0
M  END
> <COMPOUND_ID>
MMV021660

$$$$

  Mrv0541 04191616472D          

 22 23  0  0  0  0            999 V2000
    1.7843   -6.3045    0.0000 C   0  0  0  0  0  0  0  0  0  0  0  0
    1.9558   -5.4975    0.0000 N   0  0  0  0  0  0  0  0  0  0  0  0
    1.3427   -4.9455    0.0000 C   0  0  0  0  0  0  0  0  0  0  0  0
    0.5357   -5.1170    0.0000 S   0  0  0  0  0  0  0  0  0  0  0  0
    0.1232   -4.4025    0.0000 N   0  0  0  0  0  0  0  0  0  0  0  0
    0.6753   -3.7894    0.0000 C   0  0  0  0  0  0  0  0  0  0  0  0
    0.5037   -2.9825    0.0000 C   0  0  0  0  0  0  0  0  0  0  0  0
    1.4289   -4.1250    0.0000 C   0  0  0  0  0  0  0  0  0  0  0  0
    2.1434   -3.7125    0.0000 C   0  0  0  0  0  0  0  0  0  0  0  0
    2.1434   -2.8875    0.0000 O   0  0  0  0  0  0  0  0  0  0  0  0
    2.8579   -4.1250    0.0000 N   0  0  0  0  0  0  0  0  0  0  0  0
    3.5724   -3.7125    0.0000 C   0  0  0  0  0  0  0  0  0  0  0  0
    4.2868   -4.1250    0.0000 C   0  0  0  0  0  0  0  0  0  0  0  0
    5.0013   -3.7125    0.0000 O   0  0  0  0  0  0  0  0  0  0  0  0
    5.7158   -4.1250    0.0000 C   0  0  0  0  0  0  0  0  0  0  0  0
    6.4302   -3.7125    0.0000 C   0  0  0  0  0  0  0  0  0  0  0  0
    7.1447   -4.1250    0.0000 C   0  0  0  0  0  0  0  0  0  0  0  0
    7.1447   -4.9500    0.0000 C   0  0  0  0  0  0  0  0  0  0  0  0
    7.8592   -5.3625    0.0000 O   0  0  0  0  0  0  0  0  0  0  0  0
    8.5737   -4.9500    0.0000 C   0  0  0  0  0  0  0  0  0  0  0  0
    6.4302   -5.3625    0.0000 C   0  0  0  0  0  0  0  0  0  0  0  0
    5.7158   -4.9500    0.0000 C   0  0  0  0  0  0  0  0  0  0  0  0
  1  2  1  0  0  0  0
  2  3  1  0  0  0  0
  3  4  1  0  0  0  0
  4  5  1  0  0  0  0
  5  6  2  0  0  0  0
  6  7  1  0  0  0  0
  6  8  1  0  0  0  0
  3  8  2  0  0  0  0
  8  9  1  0  0  0  0
  9 10  2  0  0  0  0
  9 11  1  0  0  0  0
 11 12  1  0  0  0  0
 12 13  1  0  0  0  0
 13 14  1  0  0  0  0
 14 15  1  0  0  0  0
 15 16  2  0  0  0  0
 16 17  1  0  0  0  0
 17 18  2  0  0  0  0
 18 19  1  0  0  0  0
 19 20  1  0  0  0  0
 18 21  1  0  0  0  0
 21 22  2  0  0  0  0
 15 22  1  0  0  0  0
M  END
> <COMPOUND_ID>
MMV688554

$$$$

  Mrv0541 04191616472D          

 21 23  0  0  0  0            999 V2000
    3.6584   -0.7827    0.0000 C   0  0  0  0  0  0  0  0  0  0  0  0
    2.9440   -1.1952    0.0000 C   0  0  0  0  0  0  0  0  0  0  0  0
    2.9440   -2.0202    0.0000 C   0  0  0  0  0  0  0  0  0  0  0  0
    2.2295   -2.4327    0.0000 S   0  0  0  0  0  0  0  0  0  0  0  0
    1.5150   -2.0202    0.0000 C   0  0  0  0  0  0  0  0  0  0  0  0
    0.7614   -2.3557    0.0000 O   0  0  0  0  0  0  0  0  0  0  0  0
    0.2093   -1.7426    0.0000 C   0  0  0  0  0  0  0  0  0  0  0  0
   -0.6157   -1.7426    0.0000 C   0  0  0  0  0  0  0  0  0  0  0  0
   -1.0282   -1.0282    0.0000 C   0  0  0  0  0  0  0  0  0  0  0  0
   -0.6157   -0.3137    0.0000 C   0  0  0  0  0  0  0  0  0  0  0  0
    0.2093   -0.3137    0.0000 C   0  0  0  0  0  0  0  0  0  0  0  0
    0.6218   -1.0282    0.0000 C   0  0  0  0  0  0  0  0  0  0  0  0
    1.4288   -1.1997    0.0000 N   0  0  0  0  0  0  0  0  0  0  0  0
    3.6584   -2.4327    0.0000 C   0  0  0  0  0  0  0  0  0  0  0  0
    3.6584   -3.2577    0.0000 O   0  0  0  0  0  0  0  0  0  0  0  0
    4.3729   -2.0202    0.0000 N   0  0  0  0  0  0  0  0  0  0  0  0
    5.0874   -2.4327    0.0000 C   0  0  0  0  0  0  0  0  0  0  0  0
    5.8411   -2.0971    0.0000 N   0  0  0  0  0  0  0  0  0  0  0  0
    6.3931   -2.7102    0.0000 C   0  0  0  0  0  0  0  0  0  0  0  0
    5.9806   -3.4247    0.0000 C   0  0  0  0  0  0  0  0  0  0  0  0
    5.1736   -3.2532    0.0000 S   0  0  0  0  0  0  0  0  0  0  0  0
  1  2  1  0  0  0  0
  2  3  1  0  0  0  0
  3  4  1  0  0  0  0
  4  5  1  0  0  0  0
  5  6  1  0  0  0  0
  6  7  1  0  0  0  0
  7  8  2  0  0  0  0
  8  9  1  0  0  0  0
  9 10  2  0  0  0  0
 10 11  1  0  0  0  0
 11 12  2  0  0  0  0
  7 12  1  0  0  0  0
 12 13  1  0  0  0  0
  5 13  2  0  0  0  0
  3 14  1  0  0  0  0
 14 15  2  0  0  0  0
 14 16  1  0  0  0  0
 16 17  1  0  0  0  0
 17 18  2  0  0  0  0
 18 19  1  0  0  0  0
 19 20  2  0  0  0  0
 20 21  1  0  0  0  0
 17 21  1  0  0  0  0
M  END
> <COMPOUND_ID>
MMV676383

$$$$

  Mrv0541 04191616472D          

 19 22  0  0  0  0            999 V2000
    4.9920    1.2054    0.0000 Br  0  0  0  0  0  0  0  0  0  0  0  0
    4.8204    2.0124    0.0000 C   0  0  0  0  0  0  0  0  0  0  0  0
    4.0668    2.3479    0.0000 C   0  0  0  0  0  0  0  0  0  0  0  0
    4.1530    3.1684    0.0000 N   0  0  0  0  0  0  0  0  0  0  0  0
    4.9600    3.3400    0.0000 C   0  0  0  0  0  0  0  0  0  0  0  0
    5.3725    4.0544    0.0000 N   0  0  0  0  0  0  0  0  0  0  0  0
    6.1975    4.0544    0.0000 C   0  0  0  0  0  0  0  0  0  0  0  0
    6.6100    3.3400    0.0000 C   0  0  0  0  0  0  0  0  0  0  0  0
    6.1975    2.6255    0.0000 C   0  0  0  0  0  0  0  0  0  0  0  0
    5.3725    2.6255    0.0000 N   0  0  0  0  0  0  0  0  0  0  0  0
    3.3523    1.9354    0.0000 C   0  0  0  0  0  0  0  0  0  0  0  0
    3.3523    1.1104    0.0000 C   0  0  0  0  0  0  0  0  0  0  0  0
    2.6378    0.6979    0.0000 C   0  0  0  0  0  0  0  0  0  0  0  0
    1.9233    1.1104    0.0000 C   0  0  0  0  0  0  0  0  0  0  0  0
    1.1387    0.8555    0.0000 O   0  0  0  0  0  0  0  0  0  0  0  0
    0.6538    1.5229    0.0000 C   0  0  0  0  0  0  0  0  0  0  0  0
    1.1387    2.1904    0.0000 O   0  0  0  0  0  0  0  0  0  0  0  0
    1.9233    1.9354    0.0000 C   0  0  0  0  0  0  0  0  0  0  0  0
    2.6378    2.3479    0.0000 C   0  0  0  0  0  0  0  0  0  0  0  0
  1  2  1  0  0  0  0
  2  3  2  0  0  0  0
  3  4  1  0  0  0  0
  4  5  2  0  0  0  0
  5  6  1  0  0  0  0
  6  7  2  0  0  0  0
  7  8  1  0  0  0  0
  8  9  2  0  0  0  0
  9 10  1  0  0  0  0
  2 10  1  0  0  0  0
  5 10  1  0  0  0  0
  3 11  1  0  0  0  0
 11 12  2  0  0  0  0
 12 13  1  0  0  0  0
 13 14  2  0  0  0  0
 14 15  1  0  0  0  0
 15 16  1  0  0  0  0
 16 17  1  0  0  0  0
 17 18  1  0  0  0  0
 14 18  1  0  0  0  0
 18 19  2  0  0  0  0
 11 19  1  0  0  0  0
M  END
> <COMPOUND_ID>
MMV676377

$$$$

  Mrv0541 04191616472D          

 19 20  0  0  0  0            999 V2000
    3.5724   -1.2375    0.0000 C   0  0  0  0  0  0  0  0  0  0  0  0
    2.8579   -1.6500    0.0000 O   0  0  0  0  0  0  0  0  0  0  0  0
    2.8579   -2.4750    0.0000 C   0  0  0  0  0  0  0  0  0  0  0  0
    3.5724   -2.8875    0.0000 C   0  0  0  0  0  0  0  0  0  0  0  0
    3.5724   -3.7125    0.0000 C   0  0  0  0  0  0  0  0  0  0  0  0
    2.8579   -4.1250    0.0000 C   0  0  0  0  0  0  0  0  0  0  0  0
    2.1434   -3.7125    0.0000 C   0  0  0  0  0  0  0  0  0  0  0  0
    1.4289   -4.1250    0.0000 O   0  0  0  0  0  0  0  0  0  0  0  0
    0.7145   -3.7125    0.0000 C   0  0  0  0  0  0  0  0  0  0  0  0
    0.0000   -4.1250    0.0000 C   0  0  0  0  0  0  0  0  0  0  0  0
    0.0000   -4.9500    0.0000 O   0  0  0  0  0  0  0  0  0  0  0  0
   -0.7145   -3.7125    0.0000 C   0  0  0  0  0  0  0  0  0  0  0  0
   -1.4289   -4.1250    0.0000 C   0  0  0  0  0  0  0  0  0  0  0  0
   -2.1434   -3.7125    0.0000 C   0  0  0  0  0  0  0  0  0  0  0  0
   -2.1434   -2.8875    0.0000 C   0  0  0  0  0  0  0  0  0  0  0  0
   -2.8579   -2.4750    0.0000 Br  0  0  0  0  0  0  0  0  0  0  0  0
   -1.4289   -2.4750    0.0000 C   0  0  0  0  0  0  0  0  0  0  0  0
   -0.7145   -2.8875    0.0000 C   0  0  0  0  0  0  0  0  0  0  0  0
    2.1434   -2.8875    0.0000 C   0  0  0  0  0  0  0  0  0  0  0  0
  1  2  1  0  0  0  0
  2  3  1  0  0  0  0
  3  4  2  0  0  0  0
  4  5  1  0  0  0  0
  5  6  2  0  0  0  0
  6  7  1  0  0  0  0
  7  8  1  0  0  0  0
  8  9  1  0  0  0  0
  9 10  1  0  0  0  0
 10 11  2  0  0  0  0
 10 12  1  0  0  0  0
 12 13  2  0  0  0  0
 13 14  1  0  0  0  0
 14 15  2  0  0  0  0
 15 16  1  0  0  0  0
 15 17  1  0  0  0  0
 17 18  2  0  0  0  0
 12 18  1  0  0  0  0
  7 19  2  0  0  0  0
  3 19  1  0  0  0  0
M  END
> <COMPOUND_ID>
MMV676379

$$$$

  Mrv0541 04191616472D          

 23 25  0  0  0  0            999 V2000
    1.3222   -1.7116    0.0000 F   0  0  0  0  0  0  0  0  0  0  0  0
    2.0367   -1.2991    0.0000 C   0  0  0  0  0  0  0  0  0  0  0  0
    2.0367   -0.4741    0.0000 C   0  0  0  0  0  0  0  0  0  0  0  0
    2.7512   -0.0616    0.0000 C   0  0  0  0  0  0  0  0  0  0  0  0
    3.4656   -0.4741    0.0000 C   0  0  0  0  0  0  0  0  0  0  0  0
    3.4656   -1.2991    0.0000 C   0  0  0  0  0  0  0  0  0  0  0  0
    2.7512   -1.7116    0.0000 C   0  0  0  0  0  0  0  0  0  0  0  0
    2.7512   -2.5366    0.0000 C   0  0  0  0  0  0  0  0  0  0  0  0
    3.4186   -3.0215    0.0000 O   0  0  0  0  0  0  0  0  0  0  0  0
    3.1637   -3.8062    0.0000 C   0  0  0  0  0  0  0  0  0  0  0  0
    3.6486   -4.4736    0.0000 N   0  0  0  0  0  0  0  0  0  0  0  0
    3.3130   -5.2273    0.0000 C   0  0  0  0  0  0  0  0  0  0  0  0
    3.7980   -5.8947    0.0000 C   0  0  0  0  0  0  0  0  0  0  0  0
    3.4624   -6.6484    0.0000 C   0  0  0  0  0  0  0  0  0  0  0  0
    3.9473   -7.3158    0.0000 C   0  0  0  0  0  0  0  0  0  0  0  0
    3.6118   -8.0695    0.0000 C   0  0  0  0  0  0  0  0  0  0  0  0
    2.7913   -8.1557    0.0000 C   0  0  0  0  0  0  0  0  0  0  0  0
    2.3064   -7.4883    0.0000 C   0  0  0  0  0  0  0  0  0  0  0  0
    2.6419   -6.7346    0.0000 C   0  0  0  0  0  0  0  0  0  0  0  0
    2.3387   -3.8062    0.0000 C   0  0  0  0  0  0  0  0  0  0  0  0
    2.0837   -3.0215    0.0000 N   0  0  0  0  0  0  0  0  0  0  0  0
    1.8538   -4.4736    0.0000 C   0  0  0  0  0  0  0  0  0  0  0  0
    1.3688   -5.1410    0.0000 N   0  0  0  0  0  0  0  0  0  0  0  0
  1  2  1  0  0  0  0
  2  3  2  0  0  0  0
  3  4  1  0  0  0  0
  4  5  2  0  0  0  0
  5  6  1  0  0  0  0
  6  7  2  0  0  0  0
  2  7  1  0  0  0  0
  7  8  1  0  0  0  0
  8  9  1  0  0  0  0
  9 10  1  0  0  0  0
 10 11  1  0  0  0  0
 11 12  1  0  0  0  0
 12 13  1  0  0  0  0
 13 14  1  0  0  0  0
 14 15  2  0  0  0  0
 15 16  1  0  0  0  0
 16 17  2  0  0  0  0
 17 18  1  0  0  0  0
 18 19  2  0  0  0  0
 14 19  1  0  0  0  0
 10 20  2  0  0  0  0
 20 21  1  0  0  0  0
  8 21  2  0  0  0  0
 20 22  1  0  0  0  0
 22 23  3  0  0  0  0
M  END
> <COMPOUND_ID>
MMV676384

$$$$

  Mrv0541 04191616472D          

 27 31  0  0  0  0            999 V2000
    1.4358   -2.7631    0.0000 O   0  0  0  0  0  0  0  0  0  0  0  0
    0.8838   -2.1500    0.0000 C   0  0  0  0  0  0  0  0  0  0  0  0
    0.0768   -2.3215    0.0000 N   0  0  0  0  0  0  0  0  0  0  0  0
   -0.1781   -3.1062    0.0000 C   0  0  0  0  0  0  0  0  0  0  0  0
   -0.9851   -3.2777    0.0000 C   0  0  0  0  0  0  0  0  0  0  0  0
   -1.5371   -2.6646    0.0000 N   0  0  0  0  0  0  0  0  0  0  0  0
   -2.3441   -2.8361    0.0000 C   0  0  0  0  0  0  0  0  0  0  0  0
   -2.8961   -2.2230    0.0000 C   0  0  0  0  0  0  0  0  0  0  0  0
   -3.7031   -2.3945    0.0000 C   0  0  0  0  0  0  0  0  0  0  0  0
   -4.2551   -1.7814    0.0000 C   0  0  0  0  0  0  0  0  0  0  0  0
   -4.0002   -0.9968    0.0000 C   0  0  0  0  0  0  0  0  0  0  0  0
   -4.4127   -0.2824    0.0000 O   0  0  0  0  0  0  0  0  0  0  0  0
   -3.8607    0.3307    0.0000 C   0  0  0  0  0  0  0  0  0  0  0  0
   -3.1070   -0.0048    0.0000 O   0  0  0  0  0  0  0  0  0  0  0  0
   -3.1932   -0.8253    0.0000 C   0  0  0  0  0  0  0  0  0  0  0  0
   -2.6412   -1.4384    0.0000 C   0  0  0  0  0  0  0  0  0  0  0  0
   -1.2822   -1.8800    0.0000 C   0  0  0  0  0  0  0  0  0  0  0  0
   -0.4752   -1.7084    0.0000 C   0  0  0  0  0  0  0  0  0  0  0  0
    1.1387   -1.3654    0.0000 C   0  0  0  0  0  0  0  0  0  0  0  0
    0.6538   -0.6979    0.0000 N   0  0  0  0  0  0  0  0  0  0  0  0
    1.1387   -0.0305    0.0000 N   0  0  0  0  0  0  0  0  0  0  0  0
    1.9233   -0.2854    0.0000 C   0  0  0  0  0  0  0  0  0  0  0  0
    2.6378    0.1271    0.0000 C   0  0  0  0  0  0  0  0  0  0  0  0
    3.3523   -0.2854    0.0000 C   0  0  0  0  0  0  0  0  0  0  0  0
    3.3523   -1.1104    0.0000 C   0  0  0  0  0  0  0  0  0  0  0  0
    2.6378   -1.5229    0.0000 C   0  0  0  0  0  0  0  0  0  0  0  0
    1.9233   -1.1104    0.0000 C   0  0  0  0  0  0  0  0  0  0  0  0
  1  2  2  0  0  0  0
  2  3  1  0  0  0  0
  3  4  1  0  0  0  0
  4  5  1  0  0  0  0
  5  6  1  0  0  0  0
  6  7  1  0  0  0  0
  7  8  1  0  0  0  0
  8  9  2  0  0  0  0
  9 10  1  0  0  0  0
 10 11  2  0  0  0  0
 11 12  1  0  0  0  0
 12 13  1  0  0  0  0
 13 14  1  0  0  0  0
 14 15  1  0  0  0  0
 11 15  1  0  0  0  0
 15 16  2  0  0  0  0
  8 16  1  0  0  0  0
  6 17  1  0  0  0  0
 17 18  1  0  0  0  0
  3 18  1  0  0  0  0
  2 19  1  0  0  0  0
 19 20  1  0  0  0  0
 20 21  1  0  0  0  0
 21 22  2  0  0  0  0
 22 23  1  0  0  0  0
 23 24  1  0  0  0  0
 24 25  1  0  0  0  0
 25 26  1  0  0  0  0
 26 27  1  0  0  0  0
 19 27  2  0  0  0  0
 22 27  1  0  0  0  0
M  END
> <COMPOUND_ID>
MMV676389

$$$$

  Mrv0541 04191616472D          

 23 25  0  0  0  0            999 V2000
   -3.9047   -5.0081    0.0000 F   0  0  0  0  0  0  0  0  0  0  0  0
   -3.1902   -4.5956    0.0000 C   0  0  0  0  0  0  0  0  0  0  0  0
   -3.1902   -3.7706    0.0000 C   0  0  0  0  0  0  0  0  0  0  0  0
   -2.4757   -3.3581    0.0000 C   0  0  0  0  0  0  0  0  0  0  0  0
   -1.7613   -3.7706    0.0000 C   0  0  0  0  0  0  0  0  0  0  0  0
   -1.7613   -4.5956    0.0000 C   0  0  0  0  0  0  0  0  0  0  0  0
   -1.0468   -5.0081    0.0000 O   0  0  0  0  0  0  0  0  0  0  0  0
   -0.3323   -4.5956    0.0000 C   0  0  0  0  0  0  0  0  0  0  0  0
    0.3822   -5.0081    0.0000 C   0  0  0  0  0  0  0  0  0  0  0  0
    0.3822   -5.8331    0.0000 O   0  0  0  0  0  0  0  0  0  0  0  0
    1.0966   -4.5956    0.0000 N   0  0  0  0  0  0  0  0  0  0  0  0
    1.8111   -5.0081    0.0000 C   0  0  0  0  0  0  0  0  0  0  0  0
    2.5648   -4.6725    0.0000 N   0  0  0  0  0  0  0  0  0  0  0  0
    3.1168   -5.2856    0.0000 C   0  0  0  0  0  0  0  0  0  0  0  0
    2.7043   -6.0001    0.0000 C   0  0  0  0  0  0  0  0  0  0  0  0
    1.8973   -5.8286    0.0000 S   0  0  0  0  0  0  0  0  0  0  0  0
    3.9373   -5.1994    0.0000 C   0  0  0  0  0  0  0  0  0  0  0  0
    4.2728   -4.4457    0.0000 C   0  0  0  0  0  0  0  0  0  0  0  0
    5.0933   -4.3595    0.0000 C   0  0  0  0  0  0  0  0  0  0  0  0
    5.5782   -5.0269    0.0000 C   0  0  0  0  0  0  0  0  0  0  0  0
    5.2427   -5.7806    0.0000 C   0  0  0  0  0  0  0  0  0  0  0  0
    4.4222   -5.8668    0.0000 N   0  0  0  0  0  0  0  0  0  0  0  0
   -2.4757   -5.0081    0.0000 C   0  0  0  0  0  0  0  0  0  0  0  0
  1  2  1  0  0  0  0
  2  3  2  0  0  0  0
  3  4  1  0  0  0  0
  4  5  2  0  0  0  0
  5  6  1  0  0  0  0
  6  7  1  0  0  0  0
  7  8  1  0  0  0  0
  8  9  1  0  0  0  0
  9 10  2  0  0  0  0
  9 11  1  0  0  0  0
 11 12  1  0  0  0  0
 12 13  2  0  0  0  0
 13 14  1  0  0  0  0
 14 15  2  0  0  0  0
 15 16  1  0  0  0  0
 12 16  1  0  0  0  0
 14 17  1  0  0  0  0
 17 18  2  0  0  0  0
 18 19  1  0  0  0  0
 19 20  2  0  0  0  0
 20 21  1  0  0  0  0
 21 22  2  0  0  0  0
 17 22  1  0  0  0  0
  6 23  2  0  0  0  0
  2 23  1  0  0  0  0
M  END
> <COMPOUND_ID>
MMV676409

$$$$

  Mrv0541 04191616472D          

 23 25  0  0  0  0            999 V2000
   -0.3323   -3.7706    0.0000 C   0  0  0  0  0  0  0  0  0  0  0  0
   -0.3323   -4.5956    0.0000 C   0  0  0  0  0  0  0  0  0  0  0  0
   -1.0468   -5.0081    0.0000 O   0  0  0  0  0  0  0  0  0  0  0  0
   -1.7613   -4.5956    0.0000 C   0  0  0  0  0  0  0  0  0  0  0  0
   -2.4757   -5.0081    0.0000 C   0  0  0  0  0  0  0  0  0  0  0  0
   -3.1902   -4.5956    0.0000 C   0  0  0  0  0  0  0  0  0  0  0  0
   -3.1902   -3.7706    0.0000 C   0  0  0  0  0  0  0  0  0  0  0  0
   -2.4757   -3.3581    0.0000 C   0  0  0  0  0  0  0  0  0  0  0  0
   -1.7613   -3.7706    0.0000 C   0  0  0  0  0  0  0  0  0  0  0  0
    0.3822   -5.0081    0.0000 C   0  0  0  0  0  0  0  0  0  0  0  0
    0.3822   -5.8331    0.0000 O   0  0  0  0  0  0  0  0  0  0  0  0
    1.0966   -4.5956    0.0000 N   0  0  0  0  0  0  0  0  0  0  0  0
    1.8111   -5.0081    0.0000 C   0  0  0  0  0  0  0  0  0  0  0  0
    2.5648   -4.6725    0.0000 N   0  0  0  0  0  0  0  0  0  0  0  0
    3.1168   -5.2856    0.0000 C   0  0  0  0  0  0  0  0  0  0  0  0
    2.7043   -6.0001    0.0000 C   0  0  0  0  0  0  0  0  0  0  0  0
    1.8973   -5.8286    0.0000 S   0  0  0  0  0  0  0  0  0  0  0  0
    3.9373   -5.1994    0.0000 C   0  0  0  0  0  0  0  0  0  0  0  0
    4.2728   -4.4457    0.0000 C   0  0  0  0  0  0  0  0  0  0  0  0
    5.0933   -4.3595    0.0000 C   0  0  0  0  0  0  0  0  0  0  0  0
    5.5782   -5.0269    0.0000 C   0  0  0  0  0  0  0  0  0  0  0  0
    5.2427   -5.7806    0.0000 C   0  0  0  0  0  0  0  0  0  0  0  0
    4.4222   -5.8668    0.0000 N   0  0  0  0  0  0  0  0  0  0  0  0
  1  2  1  0  0  0  0
  2  3  1  0  0  0  0
  3  4  1  0  0  0  0
  4  5  2  0  0  0  0
  5  6  1  0  0  0  0
  6  7  2  0  0  0  0
  7  8  1  0  0  0  0
  8  9  2  0  0  0  0
  4  9  1  0  0  0  0
  2 10  1  0  0  0  0
 10 11  2  0  0  0  0
 10 12  1  0  0  0  0
 12 13  1  0  0  0  0
 13 14  2  0  0  0  0
 14 15  1  0  0  0  0
 15 16  2  0  0  0  0
 16 17  1  0  0  0  0
 13 17  1  0  0  0  0
 15 18  1  0  0  0  0
 18 19  2  0  0  0  0
 19 20  1  0  0  0  0
 20 21  2  0  0  0  0
 21 22  1  0  0  0  0
 22 23  2  0  0  0  0
 18 23  1  0  0  0  0
M  END
> <COMPOUND_ID>
MMV676411

$$$$

  Mrv0541 04191616472D          

 23 25  0  0  0  0            999 V2000
    0.7145    2.8875    0.0000 Cl  0  0  0  0  0  0  0  0  0  0  0  0
    0.7145    2.0625    0.0000 C   0  0  0  0  0  0  0  0  0  0  0  0
    1.4289    1.6500    0.0000 C   0  0  0  0  0  0  0  0  0  0  0  0
    1.4289    0.8250    0.0000 C   0  0  0  0  0  0  0  0  0  0  0  0
    0.7145    0.4125    0.0000 C   0  0  0  0  0  0  0  0  0  0  0  0
    0.0000    0.8250    0.0000 C   0  0  0  0  0  0  0  0  0  0  0  0
    0.0000    1.6500    0.0000 C   0  0  0  0  0  0  0  0  0  0  0  0
    0.7145   -0.4125    0.0000 S   0  0  0  0  0  0  0  0  0  0  0  0
   -0.1105   -0.4125    0.0000 O   0  0  0  0  0  0  0  0  0  0  0  0
    1.5395   -0.4125    0.0000 O   0  0  0  0  0  0  0  0  0  0  0  0
    0.7145   -1.2375    0.0000 C   0  0  0  0  0  0  0  0  0  0  0  0
    1.3819   -1.7224    0.0000 O   0  0  0  0  0  0  0  0  0  0  0  0
    1.1270   -2.5070    0.0000 C   0  0  0  0  0  0  0  0  0  0  0  0
    0.3020   -2.5070    0.0000 N   0  0  0  0  0  0  0  0  0  0  0  0
    0.0470   -1.7224    0.0000 C   0  0  0  0  0  0  0  0  0  0  0  0
   -0.7376   -1.4675    0.0000 C   0  0  0  0  0  0  0  0  0  0  0  0
   -1.5222   -1.2125    0.0000 N   0  0  0  0  0  0  0  0  0  0  0  0
    1.6119   -3.1745    0.0000 C   0  0  0  0  0  0  0  0  0  0  0  0
    2.4324   -3.0882    0.0000 C   0  0  0  0  0  0  0  0  0  0  0  0
    2.9173   -3.7557    0.0000 C   0  0  0  0  0  0  0  0  0  0  0  0
    2.5817   -4.5094    0.0000 C   0  0  0  0  0  0  0  0  0  0  0  0
    1.7613   -4.5956    0.0000 C   0  0  0  0  0  0  0  0  0  0  0  0
    1.2763   -3.9282    0.0000 C   0  0  0  0  0  0  0  0  0  0  0  0
  1  2  1  0  0  0  0
  2  3  2  0  0  0  0
  3  4  1  0  0  0  0
  4  5  2  0  0  0  0
  5  6  1  0  0  0  0
  6  7  2  0  0  0  0
  2  7  1  0  0  0  0
  5  8  1  0  0  0  0
  8  9  2  0  0  0  0
  8 10  2  0  0  0  0
  8 11  1  0  0  0  0
 11 12  1  0  0  0  0
 12 13  1  0  0  0  0
 13 14  2  0  0  0  0
 14 15  1  0  0  0  0
 11 15  2  0  0  0  0
 15 16  1  0  0  0  0
 16 17  3  0  0  0  0
 13 18  1  0  0  0  0
 18 19  2  0  0  0  0
 19 20  1  0  0  0  0
 20 21  2  0  0  0  0
 21 22  1  0  0  0  0
 22 23  2  0  0  0  0
 18 23  1  0  0  0  0
M  END
> <COMPOUND_ID>
MMV676412

$$$$

  Mrv0541 04191616472D          

 22 24  0  0  0  0            999 V2000
   -0.7145   -6.1875    0.0000 C   0  0  0  0  0  0  0  0  0  0  0  0
   -0.7145   -5.3625    0.0000 C   0  0  0  0  0  0  0  0  0  0  0  0
   -1.4289   -4.9500    0.0000 C   0  0  0  0  0  0  0  0  0  0  0  0
   -1.4289   -4.1250    0.0000 C   0  0  0  0  0  0  0  0  0  0  0  0
   -0.7145   -3.7125    0.0000 C   0  0  0  0  0  0  0  0  0  0  0  0
   -0.7145   -2.8875    0.0000 N   0  0  0  0  0  0  0  0  0  0  0  0
    0.0000   -2.4750    0.0000 C   0  0  0  0  0  0  0  0  0  0  0  0
    0.7145   -2.8875    0.0000 O   0  0  0  0  0  0  0  0  0  0  0  0
    0.0000   -1.6500    0.0000 C   0  0  0  0  0  0  0  0  0  0  0  0
    0.7145   -1.2375    0.0000 C   0  0  0  0  0  0  0  0  0  0  0  0
    0.7145   -0.4125    0.0000 C   0  0  0  0  0  0  0  0  0  0  0  0
    1.4289    0.0000    0.0000 O   0  0  0  0  0  0  0  0  0  0  0  0
    2.1434   -0.4125    0.0000 C   0  0  0  0  0  0  0  0  0  0  0  0
    2.8579    0.0000    0.0000 C   0  0  0  0  0  0  0  0  0  0  0  0
    3.5724   -0.4125    0.0000 C   0  0  0  0  0  0  0  0  0  0  0  0
    3.5724   -1.2375    0.0000 C   0  0  0  0  0  0  0  0  0  0  0  0
    2.8579   -1.6500    0.0000 C   0  0  0  0  0  0  0  0  0  0  0  0
    2.1434   -1.2375    0.0000 C   0  0  0  0  0  0  0  0  0  0  0  0
    1.4289   -1.6500    0.0000 O   0  0  0  0  0  0  0  0  0  0  0  0
    0.0000   -4.1250    0.0000 C   0  0  0  0  0  0  0  0  0  0  0  0
    0.0000   -4.9500    0.0000 C   0  0  0  0  0  0  0  0  0  0  0  0
    0.7145   -5.3625    0.0000 Cl  0  0  0  0  0  0  0  0  0  0  0  0
  1  2  1  0  0  0  0
  2  3  2  0  0  0  0
  3  4  1  0  0  0  0
  4  5  2  0  0  0  0
  5  6  1  0  0  0  0
  6  7  1  0  0  0  0
  7  8  2  0  0  0  0
  7  9  1  0  0  0  0
  9 10  1  0  0  0  0
 10 11  1  0  0  0  0
 11 12  1  0  0  0  0
 12 13  1  0  0  0  0
 13 14  2  0  0  0  0
 14 15  1  0  0  0  0
 15 16  2  0  0  0  0
 16 17  1  0  0  0  0
 17 18  2  0  0  0  0
 13 18  1  0  0  0  0
 18 19  1  0  0  0  0
 10 19  1  0  0  0  0
  5 20  1  0  0  0  0
 20 21  2  0  0  0  0
  2 21  1  0  0  0  0
 21 22  1  0  0  0  0
M  END
> <COMPOUND_ID>
MMV676431

$$$$

  Mrv0541 04191616472D          

 20 22  0  0  0  0            999 V2000
    0.0000   -1.6500    0.0000 C   0  0  0  0  0  0  0  0  0  0  0  0
    0.7145   -1.2375    0.0000 C   0  0  0  0  0  0  0  0  0  0  0  0
    0.7145   -0.4125    0.0000 C   0  0  0  0  0  0  0  0  0  0  0  0
    1.4289    0.0000    0.0000 C   0  0  0  0  0  0  0  0  0  0  0  0
    2.1434   -0.4125    0.0000 C   0  0  0  0  0  0  0  0  0  0  0  0
    2.8579    0.0000    0.0000 N   0  0  0  0  0  0  0  0  0  0  0  0
    3.5724   -0.4125    0.0000 C   0  0  0  0  0  0  0  0  0  0  0  0
    4.2868   -0.0000    0.0000 Cl  0  0  0  0  0  0  0  0  0  0  0  0
    3.5724   -1.2375    0.0000 C   0  0  0  0  0  0  0  0  0  0  0  0
    4.2868   -1.6500    0.0000 C   0  0  0  0  0  0  0  0  0  0  0  0
    4.2868   -2.4750    0.0000 N   0  0  0  0  0  0  0  0  0  0  0  0
    5.0013   -2.8875    0.0000 C   0  0  0  0  0  0  0  0  0  0  0  0
    5.0013   -3.7125    0.0000 C   0  0  0  0  0  0  0  0  0  0  0  0
    5.6687   -4.1974    0.0000 C   0  0  0  0  0  0  0  0  0  0  0  0
    5.4138   -4.9820    0.0000 C   0  0  0  0  0  0  0  0  0  0  0  0
    4.5888   -4.9820    0.0000 C   0  0  0  0  0  0  0  0  0  0  0  0
    4.3339   -4.1974    0.0000 S   0  0  0  0  0  0  0  0  0  0  0  0
    2.8579   -1.6500    0.0000 C   0  0  0  0  0  0  0  0  0  0  0  0
    2.1434   -1.2375    0.0000 C   0  0  0  0  0  0  0  0  0  0  0  0
    1.4289   -1.6500    0.0000 C   0  0  0  0  0  0  0  0  0  0  0  0
  1  2  1  0  0  0  0
  2  3  2  0  0  0  0
  3  4  1  0  0  0  0
  4  5  2  0  0  0  0
  5  6  1  0  0  0  0
  6  7  2  0  0  0  0
  7  8  1  0  0  0  0
  7  9  1  0  0  0  0
  9 10  1  0  0  0  0
 10 11  1  0  0  0  0
 11 12  1  0  0  0  0
 12 13  1  0  0  0  0
 13 14  2  0  0  0  0
 14 15  1  0  0  0  0
 15 16  2  0  0  0  0
 16 17  1  0  0  0  0
 13 17  1  0  0  0  0
  9 18  2  0  0  0  0
 18 19  1  0  0  0  0
  5 19  1  0  0  0  0
 19 20  2  0  0  0  0
  2 20  1  0  0  0  0
M  END
> <COMPOUND_ID>
MMV676439

$$$$

  Mrv0541 04191616472D          

 25 28  0  0  0  0            999 V2000
    4.7812    6.0604    0.0000 O   0  0  0  0  0  0  0  0  0  0  0  0
    4.0668    5.6479    0.0000 C   0  0  0  0  0  0  0  0  0  0  0  0
    3.3523    6.0604    0.0000 N   0  0  0  0  0  0  0  0  0  0  0  0
    3.3523    6.8854    0.0000 C   0  0  0  0  0  0  0  0  0  0  0  0
    2.6378    7.2979    0.0000 C   0  0  0  0  0  0  0  0  0  0  0  0
    2.6378    8.1229    0.0000 C   0  0  0  0  0  0  0  0  0  0  0  0
    3.3523    8.5354    0.0000 C   0  0  0  0  0  0  0  0  0  0  0  0
    4.0668    8.1229    0.0000 C   0  0  0  0  0  0  0  0  0  0  0  0
    4.0668    7.2979    0.0000 C   0  0  0  0  0  0  0  0  0  0  0  0
    4.0668    4.8229    0.0000 N   0  0  0  0  0  0  0  0  0  0  0  0
    4.7812    4.4104    0.0000 C   0  0  0  0  0  0  0  0  0  0  0  0
    4.7812    3.5854    0.0000 C   0  0  0  0  0  0  0  0  0  0  0  0
    4.0668    3.1729    0.0000 N   0  0  0  0  0  0  0  0  0  0  0  0
    4.0668    2.3479    0.0000 C   0  0  0  0  0  0  0  0  0  0  0  0
    3.3523    1.9354    0.0000 C   0  0  0  0  0  0  0  0  0  0  0  0
    3.3523    1.1104    0.0000 C   0  0  0  0  0  0  0  0  0  0  0  0
    2.6378    0.6979    0.0000 C   0  0  0  0  0  0  0  0  0  0  0  0
    1.9233    1.1104    0.0000 C   0  0  0  0  0  0  0  0  0  0  0  0
    1.1387    0.8555    0.0000 O   0  0  0  0  0  0  0  0  0  0  0  0
    0.6538    1.5229    0.0000 C   0  0  0  0  0  0  0  0  0  0  0  0
    1.1387    2.1904    0.0000 O   0  0  0  0  0  0  0  0  0  0  0  0
    1.9233    1.9354    0.0000 C   0  0  0  0  0  0  0  0  0  0  0  0
    2.6378    2.3479    0.0000 C   0  0  0  0  0  0  0  0  0  0  0  0
    3.3523    3.5854    0.0000 C   0  0  0  0  0  0  0  0  0  0  0  0
    3.3523    4.4104    0.0000 C   0  0  0  0  0  0  0  0  0  0  0  0
  1  2  2  0  0  0  0
  2  3  1  0  0  0  0
  3  4  1  0  0  0  0
  4  5  1  0  0  0  0
  5  6  1  0  0  0  0
  6  7  1  0  0  0  0
  7  8  1  0  0  0  0
  8  9  1  0  0  0  0
  4  9  1  0  0  0  0
  2 10  1  0  0  0  0
 10 11  1  0  0  0  0
 11 12  1  0  0  0  0
 12 13  1  0  0  0  0
 13 14  1  0  0  0  0
 14 15  1  0  0  0  0
 15 16  2  0  0  0  0
 16 17  1  0  0  0  0
 17 18  2  0  0  0  0
 18 19  1  0  0  0  0
 19 20  1  0  0  0  0
 20 21  1  0  0  0  0
 21 22  1  0  0  0  0
 18 22  1  0  0  0  0
 22 23  2  0  0  0  0
 15 23  1  0  0  0  0
 13 24  1  0  0  0  0
 24 25  1  0  0  0  0
 10 25  1  0  0  0  0
M  END
> <COMPOUND_ID>
MMV676444

$$$$

  Mrv0541 04191616472D          

 25 27  0  0  0  0            999 V2000
    2.8241    1.4088    0.0000 C   0  0  0  0  0  0  0  0  0  0  0  0
    3.5386    0.9963    0.0000 C   0  0  0  0  0  0  0  0  0  0  0  0
    3.5386    0.1713    0.0000 O   0  0  0  0  0  0  0  0  0  0  0  0
    4.2531   -0.2412    0.0000 C   0  0  0  0  0  0  0  0  0  0  0  0
    4.9675    0.1713    0.0000 O   0  0  0  0  0  0  0  0  0  0  0  0
    4.2531   -1.0662    0.0000 C   0  0  0  0  0  0  0  0  0  0  0  0
    4.9205   -1.5511    0.0000 C   0  0  0  0  0  0  0  0  0  0  0  0
    4.6656   -2.3357    0.0000 C   0  0  0  0  0  0  0  0  0  0  0  0
    3.8406   -2.3357    0.0000 O   0  0  0  0  0  0  0  0  0  0  0  0
    3.5856   -1.5511    0.0000 N   0  0  0  0  0  0  0  0  0  0  0  0
    5.1505   -3.0031    0.0000 C   0  0  0  0  0  0  0  0  0  0  0  0
    5.9755   -3.0031    0.0000 C   0  0  0  0  0  0  0  0  0  0  0  0
    6.2304   -3.7878    0.0000 S   0  0  0  0  0  0  0  0  0  0  0  0
    5.5630   -4.2727    0.0000 C   0  0  0  0  0  0  0  0  0  0  0  0
    5.5630   -5.0977    0.0000 N   0  0  0  0  0  0  0  0  0  0  0  0
    4.8485   -5.5102    0.0000 C   0  0  0  0  0  0  0  0  0  0  0  0
    4.8485   -6.3352    0.0000 C   0  0  0  0  0  0  0  0  0  0  0  0
    5.5630   -6.7477    0.0000 C   0  0  0  0  0  0  0  0  0  0  0  0
    4.1341   -6.7477    0.0000 C   0  0  0  0  0  0  0  0  0  0  0  0
    3.4196   -6.3352    0.0000 C   0  0  0  0  0  0  0  0  0  0  0  0
    2.7051   -6.7477    0.0000 C   0  0  0  0  0  0  0  0  0  0  0  0
    3.4196   -5.5102    0.0000 C   0  0  0  0  0  0  0  0  0  0  0  0
    4.1341   -5.0977    0.0000 C   0  0  0  0  0  0  0  0  0  0  0  0
    4.1341   -4.2727    0.0000 C   0  0  0  0  0  0  0  0  0  0  0  0
    4.8956   -3.7878    0.0000 N   0  0  0  0  0  0  0  0  0  0  0  0
  1  2  1  0  0  0  0
  2  3  1  0  0  0  0
  3  4  1  0  0  0  0
  4  5  2  0  0  0  0
  4  6  1  0  0  0  0
  6  7  1  0  0  0  0
  7  8  2  0  0  0  0
  8  9  1  0  0  0  0
  9 10  1  0  0  0  0
  6 10  2  0  0  0  0
  8 11  1  0  0  0  0
 11 12  2  0  0  0  0
 12 13  1  0  0  0  0
 13 14  1  0  0  0  0
 14 15  1  0  0  0  0
 15 16  1  0  0  0  0
 16 17  2  0  0  0  0
 17 18  1  0  0  0  0
 17 19  1  0  0  0  0
 19 20  2  0  0  0  0
 20 21  1  0  0  0  0
 20 22  1  0  0  0  0
 22 23  2  0  0  0  0
 16 23  1  0  0  0  0
 23 24  1  0  0  0  0
 14 25  2  0  0  0  0
 11 25  1  0  0  0  0
M  END
> <COMPOUND_ID>
MMV676461

$$$$

  Mrv0541 04191616472D          

 27 29  0  0  0  0            999 V2000
   -6.6072   -2.0550    0.0000 C   0  0  0  0  0  0  0  0  0  0  0  0
   -5.8927   -2.4675    0.0000 C   0  0  0  0  0  0  0  0  0  0  0  0
   -5.1783   -2.0550    0.0000 C   0  0  0  0  0  0  0  0  0  0  0  0
   -5.1783   -1.2300    0.0000 C   0  0  0  0  0  0  0  0  0  0  0  0
   -4.4638   -2.4675    0.0000 N   0  0  0  0  0  0  0  0  0  0  0  0
   -3.7493   -2.0550    0.0000 C   0  0  0  0  0  0  0  0  0  0  0  0
   -3.7493   -1.2300    0.0000 O   0  0  0  0  0  0  0  0  0  0  0  0
   -3.0348   -2.4675    0.0000 C   0  0  0  0  0  0  0  0  0  0  0  0
   -2.3204   -2.0550    0.0000 C   0  0  0  0  0  0  0  0  0  0  0  0
   -1.6059   -2.4675    0.0000 C   0  0  0  0  0  0  0  0  0  0  0  0
   -1.6059   -3.2925    0.0000 C   0  0  0  0  0  0  0  0  0  0  0  0
   -0.8914   -3.7050    0.0000 N   0  0  0  0  0  0  0  0  0  0  0  0
   -0.1770   -3.2925    0.0000 C   0  0  0  0  0  0  0  0  0  0  0  0
   -0.1770   -2.4675    0.0000 O   0  0  0  0  0  0  0  0  0  0  0  0
    0.5375   -3.7050    0.0000 C   0  0  0  0  0  0  0  0  0  0  0  0
    1.3221   -3.9599    0.0000 C   0  0  0  0  0  0  0  0  0  0  0  0
    1.3221   -4.7849    0.0000 C   0  0  0  0  0  0  0  0  0  0  0  0
    0.5375   -5.0398    0.0000 C   0  0  0  0  0  0  0  0  0  0  0  0
    0.0526   -4.3724    0.0000 C   0  0  0  0  0  0  0  0  0  0  0  0
    0.8731   -2.9513    0.0000 C   0  0  0  0  0  0  0  0  0  0  0  0
    0.3881   -2.2838    0.0000 C   0  0  0  0  0  0  0  0  0  0  0  0
    0.7237   -1.5302    0.0000 C   0  0  0  0  0  0  0  0  0  0  0  0
    1.5442   -1.4439    0.0000 C   0  0  0  0  0  0  0  0  0  0  0  0
    2.0291   -2.1114    0.0000 C   0  0  0  0  0  0  0  0  0  0  0  0
    1.6935   -2.8651    0.0000 C   0  0  0  0  0  0  0  0  0  0  0  0
   -2.3204   -3.7050    0.0000 C   0  0  0  0  0  0  0  0  0  0  0  0
   -3.0348   -3.2925    0.0000 C   0  0  0  0  0  0  0  0  0  0  0  0
  1  2  1  0  0  0  0
  2  3  1  0  0  0  0
  3  4  1  0  0  0  0
  3  5  1  0  0  0  0
  5  6  1  0  0  0  0
  6  7  2  0  0  0  0
  6  8  1  0  0  0  0
  8  9  2  0  0  0  0
  9 10  1  0  0  0  0
 10 11  2  0  0  0  0
 11 12  1  0  0  0  0
 12 13  1  0  0  0  0
 13 14  2  0  0  0  0
 13 15  1  0  0  0  0
 15 16  1  0  0  0  0
 16 17  1  0  0  0  0
 17 18  1  0  0  0  0
 18 19  1  0  0  0  0
 15 19  1  0  0  0  0
 15 20  1  0  0  0  0
 20 21  2  0  0  0  0
 21 22  1  0  0  0  0
 22 23  2  0  0  0  0
 23 24  1  0  0  0  0
 24 25  2  0  0  0  0
 20 25  1  0  0  0  0
 11 26  1  0  0  0  0
 26 27  2  0  0  0  0
  8 27  1  0  0  0  0
M  END
> <COMPOUND_ID>
MMV146306

$$$$

  Mrv0541 04191616472D          

 22 23  0  0  0  0            999 V2000
   -3.5724   -1.2375    0.0000 C   0  0  0  0  0  0  0  0  0  0  0  0
   -2.8579   -1.6500    0.0000 C   0  0  0  0  0  0  0  0  0  0  0  0
   -2.1434   -1.2375    0.0000 O   0  0  0  0  0  0  0  0  0  0  0  0
   -1.4289   -1.6500    0.0000 C   0  0  0  0  0  0  0  0  0  0  0  0
   -0.7145   -1.2375    0.0000 C   0  0  0  0  0  0  0  0  0  0  0  0
    0.0000   -1.6500    0.0000 C   0  0  0  0  0  0  0  0  0  0  0  0
    0.0000   -2.4750    0.0000 C   0  0  0  0  0  0  0  0  0  0  0  0
    0.7145   -2.8875    0.0000 O   0  0  0  0  0  0  0  0  0  0  0  0
    1.4289   -2.4750    0.0000 C   0  0  0  0  0  0  0  0  0  0  0  0
    2.1434   -2.8875    0.0000 C   0  0  0  0  0  0  0  0  0  0  0  0
    2.1434   -3.7125    0.0000 O   0  0  0  0  0  0  0  0  0  0  0  0
    2.8579   -2.4750    0.0000 N   0  0  0  0  0  0  0  0  0  0  0  0
    3.5724   -2.8875    0.0000 C   0  0  0  0  0  0  0  0  0  0  0  0
    4.2868   -2.4750    0.0000 C   0  0  0  0  0  0  0  0  0  0  0  0
    5.0013   -2.8875    0.0000 C   0  0  0  0  0  0  0  0  0  0  0  0
    5.7158   -2.4750    0.0000 C   0  0  0  0  0  0  0  0  0  0  0  0
    5.0013   -3.7125    0.0000 C   0  0  0  0  0  0  0  0  0  0  0  0
    4.2868   -4.1250    0.0000 C   0  0  0  0  0  0  0  0  0  0  0  0
    4.2868   -4.9500    0.0000 C   0  0  0  0  0  0  0  0  0  0  0  0
    3.5724   -3.7125    0.0000 C   0  0  0  0  0  0  0  0  0  0  0  0
   -0.7145   -2.8875    0.0000 C   0  0  0  0  0  0  0  0  0  0  0  0
   -1.4289   -2.4750    0.0000 C   0  0  0  0  0  0  0  0  0  0  0  0
  1  2  1  0  0  0  0
  2  3  1  0  0  0  0
  3  4  1  0  0  0  0
  4  5  2  0  0  0  0
  5  6  1  0  0  0  0
  6  7  2  0  0  0  0
  7  8  1  0  0  0  0
  8  9  1  0  0  0  0
  9 10  1  0  0  0  0
 10 11  2  0  0  0  0
 10 12  1  0  0  0  0
 12 13  1  0  0  0  0
 13 14  2  0  0  0  0
 14 15  1  0  0  0  0
 15 16  1  0  0  0  0
 15 17  2  0  0  0  0
 17 18  1  0  0  0  0
 18 19  1  0  0  0  0
 18 20  2  0  0  0  0
 13 20  1  0  0  0  0
  7 21  1  0  0  0  0
 21 22  2  0  0  0  0
  4 22  1  0  0  0  0
M  END
> <COMPOUND_ID>
MMV676470

$$$$

  Mrv0541 04191616472D          

 23 25  0  0  0  0            999 V2000
   -1.1166   -0.0139    0.0000 C   0  0  0  0  0  0  0  0  0  0  0  0
   -0.3096    0.1576    0.0000 O   0  0  0  0  0  0  0  0  0  0  0  0
    0.2424   -0.4555    0.0000 C   0  0  0  0  0  0  0  0  0  0  0  0
    1.0494   -0.2839    0.0000 C   0  0  0  0  0  0  0  0  0  0  0  0
    1.6014   -0.8970    0.0000 C   0  0  0  0  0  0  0  0  0  0  0  0
    1.3465   -1.6816    0.0000 C   0  0  0  0  0  0  0  0  0  0  0  0
    0.5395   -1.8532    0.0000 C   0  0  0  0  0  0  0  0  0  0  0  0
   -0.0125   -1.2401    0.0000 C   0  0  0  0  0  0  0  0  0  0  0  0
    1.8985   -2.2947    0.0000 C   0  0  0  0  0  0  0  0  0  0  0  0
    2.5660   -2.7797    0.0000 C   0  0  0  0  0  0  0  0  0  0  0  0
    2.3110   -3.5643    0.0000 C   0  0  0  0  0  0  0  0  0  0  0  0
    1.4860   -3.5643    0.0000 C   0  0  0  0  0  0  0  0  0  0  0  0
    1.2311   -2.7797    0.0000 C   0  0  0  0  0  0  0  0  0  0  0  0
    2.4506   -1.6816    0.0000 C   0  0  0  0  0  0  0  0  0  0  0  0
    3.2575   -1.8532    0.0000 O   0  0  0  0  0  0  0  0  0  0  0  0
    2.1956   -0.8970    0.0000 N   0  0  0  0  0  0  0  0  0  0  0  0
    2.7477   -0.2839    0.0000 C   0  0  0  0  0  0  0  0  0  0  0  0
    2.4927    0.5007    0.0000 C   0  0  0  0  0  0  0  0  0  0  0  0
    3.0447    1.1138    0.0000 C   0  0  0  0  0  0  0  0  0  0  0  0
    3.8517    0.9423    0.0000 C   0  0  0  0  0  0  0  0  0  0  0  0
    4.4038    1.5554    0.0000 Br  0  0  0  0  0  0  0  0  0  0  0  0
    4.1067    0.1576    0.0000 C   0  0  0  0  0  0  0  0  0  0  0  0
    3.5546   -0.4555    0.0000 C   0  0  0  0  0  0  0  0  0  0  0  0
  1  2  1  0  0  0  0
  2  3  1  0  0  0  0
  3  4  2  0  0  0  0
  4  5  1  0  0  0  0
  5  6  2  0  0  0  0
  6  7  1  0  0  0  0
  7  8  2  0  0  0  0
  3  8  1  0  0  0  0
  6  9  1  0  0  0  0
  9 10  1  0  0  0  0
 10 11  1  0  0  0  0
 11 12  1  0  0  0  0
 12 13  1  0  0  0  0
  9 13  1  0  0  0  0
  9 14  1  0  0  0  0
 14 15  2  0  0  0  0
 14 16  1  0  0  0  0
 16 17  1  0  0  0  0
 17 18  2  0  0  0  0
 18 19  1  0  0  0  0
 19 20  2  0  0  0  0
 20 21  1  0  0  0  0
 20 22  1  0  0  0  0
 22 23  2  0  0  0  0
 17 23  1  0  0  0  0
M  END
> <COMPOUND_ID>
MMV200748

$$$$

  Mrv0541 04191616472D          

 29 32  0  0  0  0            999 V2000
   -1.4087   -4.2703    0.0000 C   0  0  0  0  0  0  0  0  0  0  0  0
   -1.8212   -3.5558    0.0000 O   0  0  0  0  0  0  0  0  0  0  0  0
   -2.6462   -3.5558    0.0000 C   0  0  0  0  0  0  0  0  0  0  0  0
   -3.0587   -4.2703    0.0000 C   0  0  0  0  0  0  0  0  0  0  0  0
   -3.8837   -4.2703    0.0000 C   0  0  0  0  0  0  0  0  0  0  0  0
   -4.2962   -3.5558    0.0000 C   0  0  0  0  0  0  0  0  0  0  0  0
   -3.8837   -2.8414    0.0000 C   0  0  0  0  0  0  0  0  0  0  0  0
   -4.2962   -2.1269    0.0000 O   0  0  0  0  0  0  0  0  0  0  0  0
   -3.8837   -1.4124    0.0000 C   0  0  0  0  0  0  0  0  0  0  0  0
   -3.0587   -2.8414    0.0000 C   0  0  0  0  0  0  0  0  0  0  0  0
   -2.6462   -2.1269    0.0000 C   0  0  0  0  0  0  0  0  0  0  0  0
   -3.0587   -1.4124    0.0000 O   0  0  0  0  0  0  0  0  0  0  0  0
   -1.8212   -2.1269    0.0000 N   0  0  0  0  0  0  0  0  0  0  0  0
   -1.4087   -1.4124    0.0000 C   0  0  0  0  0  0  0  0  0  0  0  0
   -1.8212   -0.6979    0.0000 C   0  0  0  0  0  0  0  0  0  0  0  0
   -1.4087    0.0165    0.0000 C   0  0  0  0  0  0  0  0  0  0  0  0
   -0.5837    0.0165    0.0000 C   0  0  0  0  0  0  0  0  0  0  0  0
   -0.1712    0.7310    0.0000 Cl  0  0  0  0  0  0  0  0  0  0  0  0
   -0.1712   -0.6979    0.0000 C   0  0  0  0  0  0  0  0  0  0  0  0
   -0.5837   -1.4124    0.0000 C   0  0  0  0  0  0  0  0  0  0  0  0
    0.6538   -0.6979    0.0000 C   0  0  0  0  0  0  0  0  0  0  0  0
    1.1387   -0.0305    0.0000 N   0  0  0  0  0  0  0  0  0  0  0  0
    1.9233   -0.2854    0.0000 C   0  0  0  0  0  0  0  0  0  0  0  0
    2.6378    0.1271    0.0000 C   0  0  0  0  0  0  0  0  0  0  0  0
    3.3523   -0.2854    0.0000 C   0  0  0  0  0  0  0  0  0  0  0  0
    3.3523   -1.1104    0.0000 C   0  0  0  0  0  0  0  0  0  0  0  0
    2.6378   -1.5229    0.0000 C   0  0  0  0  0  0  0  0  0  0  0  0
    1.9233   -1.1104    0.0000 C   0  0  0  0  0  0  0  0  0  0  0  0
    1.1387   -1.3654    0.0000 S   0  0  0  0  0  0  0  0  0  0  0  0
  1  2  1  0  0  0  0
  2  3  1  0  0  0  0
  3  4  2  0  0  0  0
  4  5  1  0  0  0  0
  5  6  2  0  0  0  0
  6  7  1  0  0  0  0
  7  8  1  0  0  0  0
  8  9  1  0  0  0  0
  7 10  2  0  0  0  0
  3 10  1  0  0  0  0
 10 11  1  0  0  0  0
 11 12  2  0  0  0  0
 11 13  1  0  0  0  0
 13 14  1  0  0  0  0
 14 15  2  0  0  0  0
 15 16  1  0  0  0  0
 16 17  2  0  0  0  0
 17 18  1  0  0  0  0
 17 19  1  0  0  0  0
 19 20  2  0  0  0  0
 14 20  1  0  0  0  0
 19 21  1  0  0  0  0
 21 22  2  0  0  0  0
 22 23  1  0  0  0  0
 23 24  2  0  0  0  0
 24 25  1  0  0  0  0
 25 26  2  0  0  0  0
 26 27  1  0  0  0  0
 27 28  2  0  0  0  0
 23 28  1  0  0  0  0
 28 29  1  0  0  0  0
 21 29  1  0  0  0  0
M  END
> <COMPOUND_ID>
MMV676472

$$$$

  Mrv0541 04191616472D          

 28 30  0  0  0  0            999 V2000
    1.4289   -2.4750    0.0000 C   0  0  0  0  0  0  0  0  0  0  0  0
    1.4289   -1.6500    0.0000 C   0  0  0  0  0  0  0  0  0  0  0  0
    0.7145   -1.2375    0.0000 C   0  0  0  0  0  0  0  0  0  0  0  0
    0.0000   -1.6500    0.0000 C   0  0  0  0  0  0  0  0  0  0  0  0
    0.0000   -2.4750    0.0000 C   0  0  0  0  0  0  0  0  0  0  0  0
   -0.7145   -2.8875    0.0000 C   0  0  0  0  0  0  0  0  0  0  0  0
   -0.7145   -3.7125    0.0000 O   0  0  0  0  0  0  0  0  0  0  0  0
   -1.4289   -2.4750    0.0000 O   0  0  0  0  0  0  0  0  0  0  0  0
    0.7145   -0.4125    0.0000 C   0  0  0  0  0  0  0  0  0  0  0  0
    0.0000    0.0000    0.0000 O   0  0  0  0  0  0  0  0  0  0  0  0
    1.4289    0.0000    0.0000 O   0  0  0  0  0  0  0  0  0  0  0  0
    2.1434   -0.4125    0.0000 C   0  0  0  0  0  0  0  0  0  0  0  0
    2.8579    0.0000    0.0000 C   0  0  0  0  0  0  0  0  0  0  0  0
    2.8579    0.8250    0.0000 C   0  0  0  0  0  0  0  0  0  0  0  0
    3.5724   -0.4125    0.0000 C   0  0  0  0  0  0  0  0  0  0  0  0
    4.2868   -0.0000    0.0000 O   0  0  0  0  0  0  0  0  0  0  0  0
    4.2868    0.8250    0.0000 C   0  0  0  0  0  0  0  0  0  0  0  0
    5.0013    1.2375    0.0000 C   0  0  0  0  0  0  0  0  0  0  0  0
    5.0013    2.0625    0.0000 C   0  0  0  0  0  0  0  0  0  0  0  0
    5.7158    2.4750    0.0000 C   0  0  0  0  0  0  0  0  0  0  0  0
    5.7158    3.3000    0.0000 C   0  0  0  0  0  0  0  0  0  0  0  0
    6.4302    2.0625    0.0000 C   0  0  0  0  0  0  0  0  0  0  0  0
    6.4302    1.2375    0.0000 C   0  0  0  0  0  0  0  0  0  0  0  0
    7.1447    0.8250    0.0000 C   0  0  0  0  0  0  0  0  0  0  0  0
    5.7158    0.8250    0.0000 C   0  0  0  0  0  0  0  0  0  0  0  0
    3.5724   -1.2375    0.0000 C   0  0  0  0  0  0  0  0  0  0  0  0
    2.8579   -1.6500    0.0000 C   0  0  0  0  0  0  0  0  0  0  0  0
    2.1434   -1.2375    0.0000 C   0  0  0  0  0  0  0  0  0  0  0  0
  1  2  1  0  0  0  0
  2  3  2  0  0  0  0
  3  4  1  0  0  0  0
  4  5  1  0  0  0  0
  5  6  1  0  0  0  0
  6  7  2  0  0  0  0
  6  8  1  0  0  0  0
  3  9  1  0  0  0  0
  9 10  2  0  0  0  0
  9 11  1  0  0  0  0
 11 12  1  0  0  0  0
 12 13  2  0  0  0  0
 13 14  1  0  0  0  0
 13 15  1  0  0  0  0
 15 16  1  0  0  0  0
 16 17  1  0  0  0  0
 17 18  1  0  0  0  0
 18 19  2  0  0  0  0
 19 20  1  0  0  0  0
 20 21  1  0  0  0  0
 20 22  2  0  0  0  0
 22 23  1  0  0  0  0
 23 24  1  0  0  0  0
 23 25  2  0  0  0  0
 18 25  1  0  0  0  0
 15 26  2  0  0  0  0
 26 27  1  0  0  0  0
 27 28  2  0  0  0  0
  2 28  1  0  0  0  0
 12 28  1  0  0  0  0
M  END
> <COMPOUND_ID>
MMV676476

$$$$

  Mrv0541 04191616472D          

 27 29  0  0  0  0            999 V2000
    0.7145    1.2375    0.0000 C   0  0  0  0  0  0  0  0  0  0  0  0
    1.4289    0.8250    0.0000 C   0  0  0  0  0  0  0  0  0  0  0  0
    1.4289    0.0000    0.0000 C   0  0  0  0  0  0  0  0  0  0  0  0
    2.1434   -0.4125    0.0000 C   0  0  0  0  0  0  0  0  0  0  0  0
    2.8579   -0.0000    0.0000 C   0  0  0  0  0  0  0  0  0  0  0  0
    2.1434   -1.2375    0.0000 N   0  0  0  0  0  0  0  0  0  0  0  0
    1.4289   -1.6500    0.0000 C   0  0  0  0  0  0  0  0  0  0  0  0
    0.7145   -1.2375    0.0000 N   0  0  0  0  0  0  0  0  0  0  0  0
    0.7145   -0.4125    0.0000 C   0  0  0  0  0  0  0  0  0  0  0  0
    0.0000   -0.0000    0.0000 O   0  0  0  0  0  0  0  0  0  0  0  0
    1.4289   -2.4750    0.0000 N   0  0  0  0  0  0  0  0  0  0  0  0
    2.0964   -2.9599    0.0000 N   0  0  0  0  0  0  0  0  0  0  0  0
    1.8414   -3.7445    0.0000 C   0  0  0  0  0  0  0  0  0  0  0  0
    2.3264   -4.4120    0.0000 C   0  0  0  0  0  0  0  0  0  0  0  0
    1.0164   -3.7445    0.0000 C   0  0  0  0  0  0  0  0  0  0  0  0
    0.7615   -2.9599    0.0000 C   0  0  0  0  0  0  0  0  0  0  0  0
   -0.0231   -2.7050    0.0000 N   0  0  0  0  0  0  0  0  0  0  0  0
   -0.6362   -3.2570    0.0000 C   0  0  0  0  0  0  0  0  0  0  0  0
   -0.4647   -4.0640    0.0000 O   0  0  0  0  0  0  0  0  0  0  0  0
   -1.4208   -3.0021    0.0000 C   0  0  0  0  0  0  0  0  0  0  0  0
   -2.0339   -3.5541    0.0000 C   0  0  0  0  0  0  0  0  0  0  0  0
   -2.8186   -3.2992    0.0000 C   0  0  0  0  0  0  0  0  0  0  0  0
   -2.9901   -2.4922    0.0000 C   0  0  0  0  0  0  0  0  0  0  0  0
   -2.3770   -1.9402    0.0000 C   0  0  0  0  0  0  0  0  0  0  0  0
   -1.5924   -2.1951    0.0000 C   0  0  0  0  0  0  0  0  0  0  0  0
   -0.9793   -1.6431    0.0000 S   0  0  0  0  0  0  0  0  0  0  0  0
   -0.1946   -1.8980    0.0000 C   0  0  0  0  0  0  0  0  0  0  0  0
  1  2  1  0  0  0  0
  2  3  1  0  0  0  0
  3  4  2  0  0  0  0
  4  5  1  0  0  0  0
  4  6  1  0  0  0  0
  6  7  2  0  0  0  0
  7  8  1  0  0  0  0
  8  9  1  0  0  0  0
  3  9  1  0  0  0  0
  9 10  2  0  0  0  0
  7 11  1  0  0  0  0
 11 12  1  0  0  0  0
 12 13  2  0  0  0  0
 13 14  1  0  0  0  0
 13 15  1  0  0  0  0
 15 16  2  0  0  0  0
 11 16  1  0  0  0  0
 16 17  1  0  0  0  0
 17 18  1  0  0  0  0
 18 19  2  0  0  0  0
 18 20  1  0  0  0  0
 20 21  2  0  0  0  0
 21 22  1  0  0  0  0
 22 23  2  0  0  0  0
 23 24  1  0  0  0  0
 24 25  2  0  0  0  0
 20 25  1  0  0  0  0
 25 26  1  0  0  0  0
 26 27  1  0  0  0  0
M  END
> <COMPOUND_ID>
MMV676477

$$$$

  Mrv0541 04191616472D          

 25 27  0  0  0  0            999 V2000
   -2.1434    2.8875    0.0000 F   0  0  0  0  0  0  0  0  0  0  0  0
   -1.4289    2.4750    0.0000 C   0  0  0  0  0  0  0  0  0  0  0  0
   -1.8414    1.7605    0.0000 F   0  0  0  0  0  0  0  0  0  0  0  0
   -1.0164    3.1895    0.0000 F   0  0  0  0  0  0  0  0  0  0  0  0
   -0.7145    2.0625    0.0000 C   0  0  0  0  0  0  0  0  0  0  0  0
    0.0000    2.4750    0.0000 C   0  0  0  0  0  0  0  0  0  0  0  0
    0.7145    2.0625    0.0000 C   0  0  0  0  0  0  0  0  0  0  0  0
    0.7145    1.2375    0.0000 C   0  0  0  0  0  0  0  0  0  0  0  0
    0.0000    0.8250    0.0000 C   0  0  0  0  0  0  0  0  0  0  0  0
   -0.7145    1.2375    0.0000 C   0  0  0  0  0  0  0  0  0  0  0  0
    0.0000   -0.0000    0.0000 C   0  0  0  0  0  0  0  0  0  0  0  0
   -0.7145   -0.4125    0.0000 O   0  0  0  0  0  0  0  0  0  0  0  0
    0.7145   -0.4125    0.0000 N   0  0  0  0  0  0  0  0  0  0  0  0
    0.7145   -1.2375    0.0000 C   0  0  0  0  0  0  0  0  0  0  0  0
    1.3819   -1.7224    0.0000 O   0  0  0  0  0  0  0  0  0  0  0  0
    1.1270   -2.5070    0.0000 C   0  0  0  0  0  0  0  0  0  0  0  0
    0.3020   -2.5070    0.0000 N   0  0  0  0  0  0  0  0  0  0  0  0
    0.0470   -1.7224    0.0000 N   0  0  0  0  0  0  0  0  0  0  0  0
    1.6119   -3.1745    0.0000 C   0  0  0  0  0  0  0  0  0  0  0  0
    2.4324   -3.0882    0.0000 C   0  0  0  0  0  0  0  0  0  0  0  0
    2.9173   -3.7557    0.0000 C   0  0  0  0  0  0  0  0  0  0  0  0
    2.5817   -4.5094    0.0000 C   0  0  0  0  0  0  0  0  0  0  0  0
    3.0667   -5.1768    0.0000 Cl  0  0  0  0  0  0  0  0  0  0  0  0
    1.7613   -4.5956    0.0000 C   0  0  0  0  0  0  0  0  0  0  0  0
    1.2763   -3.9282    0.0000 C   0  0  0  0  0  0  0  0  0  0  0  0
  1  2  1  0  0  0  0
  2  3  1  0  0  0  0
  2  4  1  0  0  0  0
  2  5  1  0  0  0  0
  5  6  2  0  0  0  0
  6  7  1  0  0  0  0
  7  8  2  0  0  0  0
  8  9  1  0  0  0  0
  9 10  2  0  0  0  0
  5 10  1  0  0  0  0
  9 11  1  0  0  0  0
 11 12  2  0  0  0  0
 11 13  1  0  0  0  0
 13 14  1  0  0  0  0
 14 15  1  0  0  0  0
 15 16  1  0  0  0  0
 16 17  2  0  0  0  0
 17 18  1  0  0  0  0
 14 18  2  0  0  0  0
 16 19  1  0  0  0  0
 19 20  2  0  0  0  0
 20 21  1  0  0  0  0
 21 22  2  0  0  0  0
 22 23  1  0  0  0  0
 22 24  1  0  0  0  0
 24 25  2  0  0  0  0
 19 25  1  0  0  0  0
M  END
> <COMPOUND_ID>
MMV102872

$$$$

  Mrv0541 04191616472D          

 27 29  0  0  0  0            999 V2000
   -1.4289   -2.4750    0.0000 C   0  0  0  0  0  0  0  0  0  0  0  0
   -0.7145   -2.8875    0.0000 O   0  0  0  0  0  0  0  0  0  0  0  0
   -0.7145   -3.7125    0.0000 C   0  0  0  0  0  0  0  0  0  0  0  0
    0.0000   -4.1250    0.0000 C   0  0  0  0  0  0  0  0  0  0  0  0
    0.0000   -4.9500    0.0000 C   0  0  0  0  0  0  0  0  0  0  0  0
   -0.7145   -5.3625    0.0000 C   0  0  0  0  0  0  0  0  0  0  0  0
   -1.4289   -4.9500    0.0000 C   0  0  0  0  0  0  0  0  0  0  0  0
   -1.4289   -4.1250    0.0000 C   0  0  0  0  0  0  0  0  0  0  0  0
   -0.7145   -6.1875    0.0000 C   0  0  0  0  0  0  0  0  0  0  0  0
    0.0000   -6.6000    0.0000 C   0  0  0  0  0  0  0  0  0  0  0  0
    0.0000   -7.4250    0.0000 C   0  0  0  0  0  0  0  0  0  0  0  0
    0.7145   -7.8375    0.0000 N   0  0  0  0  0  0  0  0  0  0  0  0
    1.4289   -7.4250    0.0000 C   0  0  0  0  0  0  0  0  0  0  0  0
    1.4289   -6.6000    0.0000 O   0  0  0  0  0  0  0  0  0  0  0  0
    2.1434   -7.8375    0.0000 C   0  0  0  0  0  0  0  0  0  0  0  0
    2.8579   -7.4250    0.0000 C   0  0  0  0  0  0  0  0  0  0  0  0
    3.5724   -7.8375    0.0000 C   0  0  0  0  0  0  0  0  0  0  0  0
    3.5724   -8.6625    0.0000 C   0  0  0  0  0  0  0  0  0  0  0  0
    4.2868   -9.0750    0.0000 F   0  0  0  0  0  0  0  0  0  0  0  0
    2.8579   -9.0750    0.0000 C   0  0  0  0  0  0  0  0  0  0  0  0
    2.1434   -8.6625    0.0000 C   0  0  0  0  0  0  0  0  0  0  0  0
    1.4289   -9.0750    0.0000 Cl  0  0  0  0  0  0  0  0  0  0  0  0
   -0.7145   -7.8375    0.0000 C   0  0  0  0  0  0  0  0  0  0  0  0
   -1.4289   -7.4250    0.0000 C   0  0  0  0  0  0  0  0  0  0  0  0
   -1.4289   -6.6000    0.0000 C   0  0  0  0  0  0  0  0  0  0  0  0
   -2.1434   -6.1875    0.0000 O   0  0  0  0  0  0  0  0  0  0  0  0
   -2.1434   -5.3625    0.0000 C   0  0  0  0  0  0  0  0  0  0  0  0
  1  2  1  0  0  0  0
  2  3  1  0  0  0  0
  3  4  2  0  0  0  0
  4  5  1  0  0  0  0
  5  6  2  0  0  0  0
  6  7  1  0  0  0  0
  7  8  2  0  0  0  0
  3  8  1  0  0  0  0
  6  9  1  0  0  0  0
  9 10  2  0  0  0  0
 10 11  1  0  0  0  0
 11 12  1  0  0  0  0
 12 13  1  0  0  0  0
 13 14  2  0  0  0  0
 13 15  1  0  0  0  0
 15 16  2  0  0  0  0
 16 17  1  0  0  0  0
 17 18  2  0  0  0  0
 18 19  1  0  0  0  0
 18 20  1  0  0  0  0
 20 21  2  0  0  0  0
 15 21  1  0  0  0  0
 21 22  1  0  0  0  0
 11 23  2  0  0  0  0
 23 24  1  0  0  0  0
 24 25  2  0  0  0  0
  9 25  1  0  0  0  0
 25 26  1  0  0  0  0
 26 27  1  0  0  0  0
M  END
> <COMPOUND_ID>
MMV676526

$$$$

  Mrv0541 04191616472D          

 15 16  0  0  0  0            999 V2000
    1.3222    4.7652    0.0000 C   0  0  0  0  0  0  0  0  0  0  0  0
    2.0367    4.3527    0.0000 C   0  0  0  0  0  0  0  0  0  0  0  0
    2.7512    4.7652    0.0000 C   0  0  0  0  0  0  0  0  0  0  0  0
    3.4656    4.3527    0.0000 C   0  0  0  0  0  0  0  0  0  0  0  0
    4.1801    4.7652    0.0000 O   0  0  0  0  0  0  0  0  0  0  0  0
    3.4656    3.5277    0.0000 N   0  0  0  0  0  0  0  0  0  0  0  0
    2.7512    3.1152    0.0000 C   0  0  0  0  0  0  0  0  0  0  0  0
    2.0367    3.5277    0.0000 N   0  0  0  0  0  0  0  0  0  0  0  0
    2.7512    2.2902    0.0000 N   0  0  0  0  0  0  0  0  0  0  0  0
    3.4186    1.8053    0.0000 N   0  0  0  0  0  0  0  0  0  0  0  0
    3.1637    1.0206    0.0000 C   0  0  0  0  0  0  0  0  0  0  0  0
    3.6486    0.3532    0.0000 C   0  0  0  0  0  0  0  0  0  0  0  0
    2.3387    1.0206    0.0000 C   0  0  0  0  0  0  0  0  0  0  0  0
    2.0837    1.8053    0.0000 C   0  0  0  0  0  0  0  0  0  0  0  0
    1.2991    2.0602    0.0000 C   0  0  0  0  0  0  0  0  0  0  0  0
  1  2  1  0  0  0  0
  2  3  2  0  0  0  0
  3  4  1  0  0  0  0
  4  5  1  0  0  0  0
  4  6  2  0  0  0  0
  6  7  1  0  0  0  0
  7  8  2  0  0  0  0
  2  8  1  0  0  0  0
  7  9  1  0  0  0  0
  9 10  1  0  0  0  0
 10 11  2  0  0  0  0
 11 12  1  0  0  0  0
 11 13  1  0  0  0  0
 13 14  2  0  0  0  0
  9 14  1  0  0  0  0
 14 15  1  0  0  0  0
M  END
> <COMPOUND_ID>
MMV393995

$$$$

  Mrv0541 04191616472D          

 25 27  0  0  0  0            999 V2000
    3.5724   -1.2375    0.0000 C   0  0  0  0  0  0  0  0  0  0  0  0
    4.2868   -1.6500    0.0000 O   0  0  0  0  0  0  0  0  0  0  0  0
    4.2868   -2.4750    0.0000 C   0  0  0  0  0  0  0  0  0  0  0  0
    5.0013   -2.8875    0.0000 C   0  0  0  0  0  0  0  0  0  0  0  0
    5.0013   -3.7125    0.0000 C   0  0  0  0  0  0  0  0  0  0  0  0
    4.2868   -4.1250    0.0000 C   0  0  0  0  0  0  0  0  0  0  0  0
    4.2868   -4.9500    0.0000 N   0  0  0  0  0  0  0  0  0  0  0  0
    5.0013   -5.3625    0.0000 C   0  0  0  0  0  0  0  0  0  0  0  0
    5.7158   -4.9500    0.0000 C   0  0  0  0  0  0  0  0  0  0  0  0
    6.4302   -5.3625    0.0000 C   0  0  0  0  0  0  0  0  0  0  0  0
    6.4302   -6.1875    0.0000 C   0  0  0  0  0  0  0  0  0  0  0  0
    5.7158   -6.6000    0.0000 C   0  0  0  0  0  0  0  0  0  0  0  0
    5.0013   -6.1875    0.0000 C   0  0  0  0  0  0  0  0  0  0  0  0
    4.2868   -6.6000    0.0000 N   0  0  0  0  0  0  0  0  0  0  0  0
    4.2868   -7.4250    0.0000 C   0  0  0  0  0  0  0  0  0  0  0  0
    5.0013   -7.8375    0.0000 O   0  0  0  0  0  0  0  0  0  0  0  0
    3.5724   -7.8375    0.0000 C   0  0  0  0  0  0  0  0  0  0  0  0
    3.5724   -8.6625    0.0000 C   0  0  0  0  0  0  0  0  0  0  0  0
    2.8579   -9.0750    0.0000 C   0  0  0  0  0  0  0  0  0  0  0  0
    2.1434   -8.6625    0.0000 C   0  0  0  0  0  0  0  0  0  0  0  0
    1.4289   -9.0750    0.0000 O   0  0  0  0  0  0  0  0  0  0  0  0
    2.1434   -7.8375    0.0000 N   0  0  0  0  0  0  0  0  0  0  0  0
    2.8579   -7.4250    0.0000 C   0  0  0  0  0  0  0  0  0  0  0  0
    3.5724   -3.7125    0.0000 C   0  0  0  0  0  0  0  0  0  0  0  0
    3.5724   -2.8875    0.0000 C   0  0  0  0  0  0  0  0  0  0  0  0
  1  2  1  0  0  0  0
  2  3  1  0  0  0  0
  3  4  2  0  0  0  0
  4  5  1  0  0  0  0
  5  6  2  0  0  0  0
  6  7  1  0  0  0  0
  7  8  1  0  0  0  0
  8  9  2  0  0  0  0
  9 10  1  0  0  0  0
 10 11  2  0  0  0  0
 11 12  1  0  0  0  0
 12 13  2  0  0  0  0
  8 13  1  0  0  0  0
 13 14  1  0  0  0  0
 14 15  1  0  0  0  0
 15 16  2  0  0  0  0
 15 17  1  0  0  0  0
 17 18  2  0  0  0  0
 18 19  1  0  0  0  0
 19 20  2  0  0  0  0
 20 21  1  0  0  0  0
 20 22  1  0  0  0  0
 22 23  2  0  0  0  0
 17 23  1  0  0  0  0
  6 24  1  0  0  0  0
 24 25  2  0  0  0  0
  3 25  1  0  0  0  0
M  END
> <COMPOUND_ID>
MMV676554

$$$$

  Mrv0541 04191616472D          

 27 31  0  0  0  0            999 V2000
    2.9327   -1.4279    0.0000 C   0  0  0  0  0  0  0  0  0  0  0  0
    3.6002   -0.9429    0.0000 C   0  0  0  0  0  0  0  0  0  0  0  0
    4.3848   -1.1979    0.0000 N   0  0  0  0  0  0  0  0  0  0  0  0
    4.8697   -0.5304    0.0000 N   0  0  0  0  0  0  0  0  0  0  0  0
    4.3848    0.1370    0.0000 C   0  0  0  0  0  0  0  0  0  0  0  0
    4.6397    0.9216    0.0000 O   0  0  0  0  0  0  0  0  0  0  0  0
    3.6002   -0.1179    0.0000 C   0  0  0  0  0  0  0  0  0  0  0  0
    2.9327    0.3670    0.0000 C   0  0  0  0  0  0  0  0  0  0  0  0
    2.1790    0.0314    0.0000 C   0  0  0  0  0  0  0  0  0  0  0  0
    2.0928   -0.7891    0.0000 C   0  0  0  0  0  0  0  0  0  0  0  0
    1.3391   -1.1246    0.0000 C   0  0  0  0  0  0  0  0  0  0  0  0
    0.6717   -0.6397    0.0000 C   0  0  0  0  0  0  0  0  0  0  0  0
    0.7579    0.1808    0.0000 C   0  0  0  0  0  0  0  0  0  0  0  0
    0.0905    0.6657    0.0000 C   0  0  0  0  0  0  0  0  0  0  0  0
    0.1767    1.4862    0.0000 C   0  0  0  0  0  0  0  0  0  0  0  0
    0.9304    1.8217    0.0000 C   0  0  0  0  0  0  0  0  0  0  0  0
    1.5978    1.3368    0.0000 C   0  0  0  0  0  0  0  0  0  0  0  0
    1.5116    0.5163    0.0000 C   0  0  0  0  0  0  0  0  0  0  0  0
    5.6947   -0.5304    0.0000 C   0  0  0  0  0  0  0  0  0  0  0  0
    6.1796    0.1370    0.0000 N   0  0  0  0  0  0  0  0  0  0  0  0
    6.9642   -0.1179    0.0000 C   0  0  0  0  0  0  0  0  0  0  0  0
    7.6787    0.2946    0.0000 C   0  0  0  0  0  0  0  0  0  0  0  0
    8.3932   -0.1179    0.0000 C   0  0  0  0  0  0  0  0  0  0  0  0
    8.3932   -0.9429    0.0000 C   0  0  0  0  0  0  0  0  0  0  0  0
    7.6787   -1.3554    0.0000 C   0  0  0  0  0  0  0  0  0  0  0  0
    6.9642   -0.9429    0.0000 C   0  0  0  0  0  0  0  0  0  0  0  0
    6.1796   -1.1979    0.0000 S   0  0  0  0  0  0  0  0  0  0  0  0
  1  2  1  0  0  0  0
  2  3  2  0  0  0  0
  3  4  1  0  0  0  0
  4  5  1  0  0  0  0
  5  6  2  0  0  0  0
  5  7  1  0  0  0  0
  2  7  1  0  0  0  0
  7  8  1  0  0  0  0
  8  9  1  0  0  0  0
  9 10  1  0  0  0  0
 10 11  2  0  0  0  0
 11 12  1  0  0  0  0
 12 13  2  0  0  0  0
 13 14  1  0  0  0  0
 14 15  2  0  0  0  0
 15 16  1  0  0  0  0
 16 17  2  0  0  0  0
 17 18  1  0  0  0  0
  9 18  2  0  0  0  0
 13 18  1  0  0  0  0
  4 19  1  0  0  0  0
 19 20  2  0  0  0  0
 20 21  1  0  0  0  0
 21 22  2  0  0  0  0
 22 23  1  0  0  0  0
 23 24  2  0  0  0  0
 24 25  1  0  0  0  0
 25 26  2  0  0  0  0
 21 26  1  0  0  0  0
 26 27  1  0  0  0  0
 19 27  1  0  0  0  0
M  END
> <COMPOUND_ID>
MMV676558

$$$$

  Mrv0541 04191616472D          

 19 21  0  0  0  0            999 V2000
    4.0668    2.3479    0.0000 F   0  0  0  0  0  0  0  0  0  0  0  0
    3.3523    1.9354    0.0000 C   0  0  0  0  0  0  0  0  0  0  0  0
    3.3523    1.1104    0.0000 C   0  0  0  0  0  0  0  0  0  0  0  0
    2.6378    0.6979    0.0000 C   0  0  0  0  0  0  0  0  0  0  0  0
    1.9233    1.1104    0.0000 C   0  0  0  0  0  0  0  0  0  0  0  0
    1.1387    0.8555    0.0000 C   0  0  0  0  0  0  0  0  0  0  0  0
    0.8838    0.0709    0.0000 Cl  0  0  0  0  0  0  0  0  0  0  0  0
    0.6538    1.5229    0.0000 C   0  0  0  0  0  0  0  0  0  0  0  0
    1.1387    2.1904    0.0000 S   0  0  0  0  0  0  0  0  0  0  0  0
    1.9233    1.9354    0.0000 C   0  0  0  0  0  0  0  0  0  0  0  0
    2.6378    2.3479    0.0000 C   0  0  0  0  0  0  0  0  0  0  0  0
   -0.1712    1.5229    0.0000 C   0  0  0  0  0  0  0  0  0  0  0  0
   -0.5837    2.2374    0.0000 O   0  0  0  0  0  0  0  0  0  0  0  0
   -0.5837    0.8085    0.0000 N   0  0  0  0  0  0  0  0  0  0  0  0
   -1.4087    0.8085    0.0000 C   0  0  0  0  0  0  0  0  0  0  0  0
   -1.8936    0.1410    0.0000 N   0  0  0  0  0  0  0  0  0  0  0  0
   -2.6782    0.3960    0.0000 C   0  0  0  0  0  0  0  0  0  0  0  0
   -2.6782    1.2210    0.0000 C   0  0  0  0  0  0  0  0  0  0  0  0
   -1.8936    1.4759    0.0000 S   0  0  0  0  0  0  0  0  0  0  0  0
  1  2  1  0  0  0  0
  2  3  2  0  0  0  0
  3  4  1  0  0  0  0
  4  5  2  0  0  0  0
  5  6  1  0  0  0  0
  6  7  1  0  0  0  0
  6  8  2  0  0  0  0
  8  9  1  0  0  0  0
  9 10  1  0  0  0  0
  5 10  1  0  0  0  0
 10 11  2  0  0  0  0
  2 11  1  0  0  0  0
  8 12  1  0  0  0  0
 12 13  2  0  0  0  0
 12 14  1  0  0  0  0
 14 15  1  0  0  0  0
 15 16  2  0  0  0  0
 16 17  1  0  0  0  0
 17 18  1  0  0  0  0
 18 19  1  0  0  0  0
 15 19  1  0  0  0  0
M  END
> <COMPOUND_ID>
MMV676584

$$$$

  Mrv0541 04191616472D          

 18 21  0  0  0  0            999 V2000
    2.8119    1.7485    0.0000 N   0  0  0  0  0  0  0  0  0  0  0  0
    2.9745    0.9396    0.0000 C   0  0  0  0  0  0  0  0  0  0  0  0
    3.7562    0.6761    0.0000 C   0  0  0  0  0  0  0  0  0  0  0  0
    4.3754    1.2213    0.0000 C   0  0  0  0  0  0  0  0  0  0  0  0
    5.1571    0.9577    0.0000 C   0  0  0  0  0  0  0  0  0  0  0  0
    5.3198    0.1489    0.0000 C   0  0  0  0  0  0  0  0  0  0  0  0
    4.7006   -0.3963    0.0000 C   0  0  0  0  0  0  0  0  0  0  0  0
    3.9189   -0.1327    0.0000 C   0  0  0  0  0  0  0  0  0  0  0  0
    3.2997   -0.6780    0.0000 N   0  0  0  0  0  0  0  0  0  0  0  0
    2.5180   -0.4144    0.0000 C   0  0  0  0  0  0  0  0  0  0  0  0
    1.7990   -0.8190    0.0000 S   0  0  0  0  0  0  0  0  0  0  0  0
    1.1920   -0.2602    0.0000 C   0  0  0  0  0  0  0  0  0  0  0  0
    0.3706   -0.3374    0.0000 C   0  0  0  0  0  0  0  0  0  0  0  0
   -0.1069    0.3353    0.0000 C   0  0  0  0  0  0  0  0  0  0  0  0
    0.2369    1.0852    0.0000 C   0  0  0  0  0  0  0  0  0  0  0  0
    1.0583    1.1624    0.0000 C   0  0  0  0  0  0  0  0  0  0  0  0
    1.5359    0.4897    0.0000 C   0  0  0  0  0  0  0  0  0  0  0  0
    2.3553    0.3944    0.0000 C   0  0  0  0  0  0  0  0  0  0  0  0
  1  2  1  0  0  0  0
  2  3  1  0  0  0  0
  3  4  1  0  0  0  0
  4  5  1  0  0  0  0
  5  6  1  0  0  0  0
  6  7  1  0  0  0  0
  7  8  1  0  0  0  0
  3  8  2  0  0  0  0
  8  9  1  0  0  0  0
  9 10  2  0  0  0  0
 10 11  1  0  0  0  0
 11 12  1  0  0  0  0
 12 13  1  0  0  0  0
 13 14  1  0  0  0  0
 14 15  1  0  0  0  0
 15 16  1  0  0  0  0
 16 17  1  0  0  0  0
 12 17  2  0  0  0  0
 17 18  1  0  0  0  0
  2 18  2  0  0  0  0
 10 18  1  0  0  0  0
M  END
> <COMPOUND_ID>
MMV676588

$$$$

  Mrv0541 04191616472D          

 25 27  0  0  0  0            999 V2000
   -3.4316   -4.1775    0.0000 C   0  0  0  0  0  0  0  0  0  0  0  0
   -2.6111   -4.0913    0.0000 C   0  0  0  0  0  0  0  0  0  0  0  0
   -2.1262   -4.7587    0.0000 C   0  0  0  0  0  0  0  0  0  0  0  0
   -1.3057   -4.6725    0.0000 N   0  0  0  0  0  0  0  0  0  0  0  0
   -0.8932   -3.9580    0.0000 N   0  0  0  0  0  0  0  0  0  0  0  0
   -0.0862   -4.1295    0.0000 N   0  0  0  0  0  0  0  0  0  0  0  0
    0.0000   -4.9500    0.0000 C   0  0  0  0  0  0  0  0  0  0  0  0
    0.7145   -5.3625    0.0000 N   0  0  0  0  0  0  0  0  0  0  0  0
    1.4289   -4.9500    0.0000 C   0  0  0  0  0  0  0  0  0  0  0  0
    1.4289   -4.1250    0.0000 O   0  0  0  0  0  0  0  0  0  0  0  0
    2.1434   -5.3625    0.0000 C   0  0  0  0  0  0  0  0  0  0  0  0
    2.8579   -4.9500    0.0000 O   0  0  0  0  0  0  0  0  0  0  0  0
    3.5724   -5.3625    0.0000 C   0  0  0  0  0  0  0  0  0  0  0  0
    4.2868   -4.9500    0.0000 C   0  0  0  0  0  0  0  0  0  0  0  0
    5.0013   -5.3625    0.0000 C   0  0  0  0  0  0  0  0  0  0  0  0
    5.0013   -6.1875    0.0000 C   0  0  0  0  0  0  0  0  0  0  0  0
    4.2868   -6.6000    0.0000 C   0  0  0  0  0  0  0  0  0  0  0  0
    3.5724   -6.1875    0.0000 C   0  0  0  0  0  0  0  0  0  0  0  0
    5.7158   -6.6000    0.0000 C   0  0  0  0  0  0  0  0  0  0  0  0
    6.4302   -6.1875    0.0000 C   0  0  0  0  0  0  0  0  0  0  0  0
    7.1447   -6.6000    0.0000 C   0  0  0  0  0  0  0  0  0  0  0  0
    7.1447   -7.4250    0.0000 C   0  0  0  0  0  0  0  0  0  0  0  0
    6.4302   -7.8375    0.0000 C   0  0  0  0  0  0  0  0  0  0  0  0
    5.7158   -7.4250    0.0000 C   0  0  0  0  0  0  0  0  0  0  0  0
   -0.7537   -5.2856    0.0000 N   0  0  0  0  0  0  0  0  0  0  0  0
  1  2  1  0  0  0  0
  2  3  1  0  0  0  0
  3  4  1  0  0  0  0
  4  5  1  0  0  0  0
  5  6  2  0  0  0  0
  6  7  1  0  0  0  0
  7  8  1  0  0  0  0
  8  9  1  0  0  0  0
  9 10  2  0  0  0  0
  9 11  1  0  0  0  0
 11 12  1  0  0  0  0
 12 13  1  0  0  0  0
 13 14  2  0  0  0  0
 14 15  1  0  0  0  0
 15 16  2  0  0  0  0
 16 17  1  0  0  0  0
 17 18  2  0  0  0  0
 13 18  1  0  0  0  0
 16 19  1  0  0  0  0
 19 20  1  0  0  0  0
 20 21  1  0  0  0  0
 21 22  1  0  0  0  0
 22 23  1  0  0  0  0
 23 24  1  0  0  0  0
 19 24  1  0  0  0  0
  7 25  2  0  0  0  0
  4 25  1  0  0  0  0
M  END
> <COMPOUND_ID>
MMV676597

$$$$

  Mrv0541 04191616472D          

 25 27  0  0  0  0            999 V2000
    2.8579   -2.4750    0.0000 C   0  0  0  0  0  0  0  0  0  0  0  0
    2.8579   -1.6500    0.0000 O   0  0  0  0  0  0  0  0  0  0  0  0
    2.1434   -1.2375    0.0000 C   0  0  0  0  0  0  0  0  0  0  0  0
    1.4289   -1.6500    0.0000 C   0  0  0  0  0  0  0  0  0  0  0  0
    0.7145   -1.2375    0.0000 C   0  0  0  0  0  0  0  0  0  0  0  0
    0.7145   -0.4125    0.0000 C   0  0  0  0  0  0  0  0  0  0  0  0
   -0.0000    0.0000    0.0000 N   0  0  0  0  0  0  0  0  0  0  0  0
   -0.0000    0.8250    0.0000 C   0  0  0  0  0  0  0  0  0  0  0  0
   -0.7145    1.2375    0.0000 C   0  0  0  0  0  0  0  0  0  0  0  0
    0.7145    1.2375    0.0000 C   0  0  0  0  0  0  0  0  0  0  0  0
    1.4289    0.8250    0.0000 C   0  0  0  0  0  0  0  0  0  0  0  0
    2.1434    1.2375    0.0000 O   0  0  0  0  0  0  0  0  0  0  0  0
    2.8579    0.8250    0.0000 C   0  0  0  0  0  0  0  0  0  0  0  0
    3.5724    1.2375    0.0000 C   0  0  0  0  0  0  0  0  0  0  0  0
    3.5724    2.0625    0.0000 O   0  0  0  0  0  0  0  0  0  0  0  0
    4.2868    0.8250    0.0000 N   0  0  0  0  0  0  0  0  0  0  0  0
    5.0013    1.2375    0.0000 C   0  0  0  0  0  0  0  0  0  0  0  0
    5.7158    0.8250    0.0000 C   0  0  0  0  0  0  0  0  0  0  0  0
    6.4302    1.2375    0.0000 C   0  0  0  0  0  0  0  0  0  0  0  0
    7.1447    0.8250    0.0000 C   0  0  0  0  0  0  0  0  0  0  0  0
    7.1447    0.0000    0.0000 C   0  0  0  0  0  0  0  0  0  0  0  0
    6.4302   -0.4125    0.0000 C   0  0  0  0  0  0  0  0  0  0  0  0
    5.7158    0.0000    0.0000 C   0  0  0  0  0  0  0  0  0  0  0  0
    1.4289    0.0000    0.0000 C   0  0  0  0  0  0  0  0  0  0  0  0
    2.1434   -0.4125    0.0000 C   0  0  0  0  0  0  0  0  0  0  0  0
  1  2  1  0  0  0  0
  2  3  1  0  0  0  0
  3  4  2  0  0  0  0
  4  5  1  0  0  0  0
  5  6  2  0  0  0  0
  6  7  1  0  0  0  0
  7  8  2  0  0  0  0
  8  9  1  0  0  0  0
  8 10  1  0  0  0  0
 10 11  2  0  0  0  0
 11 12  1  0  0  0  0
 12 13  1  0  0  0  0
 13 14  1  0  0  0  0
 14 15  2  0  0  0  0
 14 16  1  0  0  0  0
 16 17  1  0  0  0  0
 17 18  1  0  0  0  0
 18 19  2  0  0  0  0
 19 20  1  0  0  0  0
 20 21  2  0  0  0  0
 21 22  1  0  0  0  0
 22 23  2  0  0  0  0
 18 23  1  0  0  0  0
 11 24  1  0  0  0  0
  6 24  1  0  0  0  0
 24 25  2  0  0  0  0
  3 25  1  0  0  0  0
M  END
> <COMPOUND_ID>
MMV687189

$$$$

  Mrv0541 04191616472D          

 20 21  0  0  0  0            999 V2000
    0.0000   -4.1250    0.0000 N   0  0  0  0  0  0  0  0  0  0  0  0
   -0.7145   -3.7125    0.0000 C   0  0  0  0  0  0  0  0  0  0  0  0
   -1.4289   -4.1250    0.0000 O   0  0  0  0  0  0  0  0  0  0  0  0
   -0.7145   -2.8875    0.0000 C   0  0  0  0  0  0  0  0  0  0  0  0
   -1.4289   -2.4750    0.0000 C   0  0  0  0  0  0  0  0  0  0  0  0
   -1.4289   -1.6500    0.0000 C   0  0  0  0  0  0  0  0  0  0  0  0
   -2.1434   -1.2375    0.0000 Br  0  0  0  0  0  0  0  0  0  0  0  0
   -0.7145   -1.2375    0.0000 C   0  0  0  0  0  0  0  0  0  0  0  0
    0.0000   -1.6500    0.0000 C   0  0  0  0  0  0  0  0  0  0  0  0
    0.0000   -2.4750    0.0000 C   0  0  0  0  0  0  0  0  0  0  0  0
    0.7145   -2.8875    0.0000 O   0  0  0  0  0  0  0  0  0  0  0  0
    1.4289   -2.4750    0.0000 C   0  0  0  0  0  0  0  0  0  0  0  0
    2.1434   -2.8875    0.0000 C   0  0  0  0  0  0  0  0  0  0  0  0
    2.8579   -2.4750    0.0000 O   0  0  0  0  0  0  0  0  0  0  0  0
    3.5724   -2.8875    0.0000 C   0  0  0  0  0  0  0  0  0  0  0  0
    4.2868   -2.4750    0.0000 C   0  0  0  0  0  0  0  0  0  0  0  0
    5.0013   -2.8875    0.0000 C   0  0  0  0  0  0  0  0  0  0  0  0
    5.0013   -3.7125    0.0000 C   0  0  0  0  0  0  0  0  0  0  0  0
    4.2868   -4.1250    0.0000 C   0  0  0  0  0  0  0  0  0  0  0  0
    3.5724   -3.7125    0.0000 C   0  0  0  0  0  0  0  0  0  0  0  0
  1  2  1  0  0  0  0
  2  3  2  0  0  0  0
  2  4  1  0  0  0  0
  4  5  2  0  0  0  0
  5  6  1  0  0  0  0
  6  7  1  0  0  0  0
  6  8  2  0  0  0  0
  8  9  1  0  0  0  0
  9 10  2  0  0  0  0
  4 10  1  0  0  0  0
 10 11  1  0  0  0  0
 11 12  1  0  0  0  0
 12 13  1  0  0  0  0
 13 14  1  0  0  0  0
 14 15  1  0  0  0  0
 15 16  2  0  0  0  0
 16 17  1  0  0  0  0
 17 18  2  0  0  0  0
 18 19  1  0  0  0  0
 19 20  2  0  0  0  0
 15 20  1  0  0  0  0
M  END
> <COMPOUND_ID>
MMV687243

$$$$

  Mrv0541 04191616472D          

 24 27  0  0  0  0            999 V2000
   -0.1712   -0.6979    0.0000 N   0  0  0  0  0  0  0  0  0  0  0  0
    0.6538   -0.6979    0.0000 C   0  0  0  0  0  0  0  0  0  0  0  0
    1.1387   -0.0305    0.0000 N   0  0  0  0  0  0  0  0  0  0  0  0
    1.9233   -0.2854    0.0000 C   0  0  0  0  0  0  0  0  0  0  0  0
    2.6378    0.1271    0.0000 C   0  0  0  0  0  0  0  0  0  0  0  0
    3.3523   -0.2854    0.0000 C   0  0  0  0  0  0  0  0  0  0  0  0
    3.3523   -1.1104    0.0000 C   0  0  0  0  0  0  0  0  0  0  0  0
    2.6378   -1.5229    0.0000 C   0  0  0  0  0  0  0  0  0  0  0  0
    1.9233   -1.1104    0.0000 C   0  0  0  0  0  0  0  0  0  0  0  0
    1.1387   -1.3654    0.0000 N   0  0  0  0  0  0  0  0  0  0  0  0
    4.0668   -1.5229    0.0000 C   0  0  0  0  0  0  0  0  0  0  0  0
    4.7812   -1.1104    0.0000 C   0  0  0  0  0  0  0  0  0  0  0  0
    5.4957   -1.5229    0.0000 N   0  0  0  0  0  0  0  0  0  0  0  0
    5.4957   -2.3479    0.0000 C   0  0  0  0  0  0  0  0  0  0  0  0
    4.7812   -2.7604    0.0000 C   0  0  0  0  0  0  0  0  0  0  0  0
    4.7812   -3.5854    0.0000 O   0  0  0  0  0  0  0  0  0  0  0  0
    4.0668   -3.9979    0.0000 C   0  0  0  0  0  0  0  0  0  0  0  0
    4.0668   -4.8229    0.0000 C   0  0  0  0  0  0  0  0  0  0  0  0
    3.3523   -5.2354    0.0000 C   0  0  0  0  0  0  0  0  0  0  0  0
    2.6378   -4.8229    0.0000 C   0  0  0  0  0  0  0  0  0  0  0  0
    1.9233   -5.2354    0.0000 F   0  0  0  0  0  0  0  0  0  0  0  0
    2.6378   -3.9979    0.0000 C   0  0  0  0  0  0  0  0  0  0  0  0
    3.3523   -3.5854    0.0000 C   0  0  0  0  0  0  0  0  0  0  0  0
    4.0668   -2.3479    0.0000 C   0  0  0  0  0  0  0  0  0  0  0  0
  1  2  1  0  0  0  0
  2  3  2  0  0  0  0
  3  4  1  0  0  0  0
  4  5  2  0  0  0  0
  5  6  1  0  0  0  0
  6  7  2  0  0  0  0
  7  8  1  0  0  0  0
  8  9  2  0  0  0  0
  4  9  1  0  0  0  0
  9 10  1  0  0  0  0
  2 10  1  0  0  0  0
  7 11  1  0  0  0  0
 11 12  2  0  0  0  0
 12 13  1  0  0  0  0
 13 14  2  0  0  0  0
 14 15  1  0  0  0  0
 15 16  1  0  0  0  0
 16 17  1  0  0  0  0
 17 18  2  0  0  0  0
 18 19  1  0  0  0  0
 19 20  2  0  0  0  0
 20 21  1  0  0  0  0
 20 22  1  0  0  0  0
 22 23  2  0  0  0  0
 17 23  1  0  0  0  0
 15 24  2  0  0  0  0
 11 24  1  0  0  0  0
M  END
> <COMPOUND_ID>
MMV687248

$$$$

  Mrv0541 04191616472D          

 23 25  0  0  0  0            999 V2000
   -4.2868   -1.6500    0.0000 C   0  0  0  0  0  0  0  0  0  0  0  0
   -3.5724   -1.2375    0.0000 C   0  0  0  0  0  0  0  0  0  0  0  0
   -2.8579   -1.6500    0.0000 C   0  0  0  0  0  0  0  0  0  0  0  0
   -2.1434   -1.2375    0.0000 C   0  0  0  0  0  0  0  0  0  0  0  0
   -1.4289   -1.6500    0.0000 C   0  0  0  0  0  0  0  0  0  0  0  0
   -0.7145   -1.2375    0.0000 C   0  0  0  0  0  0  0  0  0  0  0  0
    0.0000   -1.6500    0.0000 C   0  0  0  0  0  0  0  0  0  0  0  0
    0.0000   -2.4750    0.0000 C   0  0  0  0  0  0  0  0  0  0  0  0
   -0.7145   -2.8875    0.0000 N   0  0  0  0  0  0  0  0  0  0  0  0
   -1.4289   -2.4750    0.0000 C   0  0  0  0  0  0  0  0  0  0  0  0
    0.7145   -2.8875    0.0000 C   0  0  0  0  0  0  0  0  0  0  0  0
    0.7145   -3.7125    0.0000 O   0  0  0  0  0  0  0  0  0  0  0  0
    1.4289   -2.4750    0.0000 N   0  0  0  0  0  0  0  0  0  0  0  0
    1.4289   -1.6500    0.0000 C   0  0  0  0  0  0  0  0  0  0  0  0
    0.7145   -1.2375    0.0000 N   0  0  0  0  0  0  0  0  0  0  0  0
    0.7145   -0.4125    0.0000 C   0  0  0  0  0  0  0  0  0  0  0  0
    1.4289    0.0000    0.0000 C   0  0  0  0  0  0  0  0  0  0  0  0
    2.1434   -0.4125    0.0000 C   0  0  0  0  0  0  0  0  0  0  0  0
    2.8579    0.0000    0.0000 C   0  0  0  0  0  0  0  0  0  0  0  0
    3.5724   -0.4125    0.0000 C   0  0  0  0  0  0  0  0  0  0  0  0
    3.5724   -1.2375    0.0000 C   0  0  0  0  0  0  0  0  0  0  0  0
    2.8579   -1.6500    0.0000 C   0  0  0  0  0  0  0  0  0  0  0  0
    2.1434   -1.2375    0.0000 C   0  0  0  0  0  0  0  0  0  0  0  0
  1  2  1  0  0  0  0
  2  3  1  0  0  0  0
  3  4  1  0  0  0  0
  4  5  1  0  0  0  0
  5  6  2  0  0  0  0
  6  7  1  0  0  0  0
  7  8  2  0  0  0  0
  8  9  1  0  0  0  0
  9 10  2  0  0  0  0
  5 10  1  0  0  0  0
  8 11  1  0  0  0  0
 11 12  2  0  0  0  0
 11 13  1  0  0  0  0
 13 14  1  0  0  0  0
 14 15  1  0  0  0  0
 15 16  2  0  0  0  0
 16 17  1  0  0  0  0
 17 18  2  0  0  0  0
 18 19  1  0  0  0  0
 19 20  2  0  0  0  0
 20 21  1  0  0  0  0
 21 22  2  0  0  0  0
 22 23  1  0  0  0  0
 14 23  2  0  0  0  0
 18 23  1  0  0  0  0
M  END
> <COMPOUND_ID>
MMV687254

$$$$

  Mrv0541 04191616472D          

 32 35  0  0  1  0            999 V2000
    3.2789    2.0625    0.0000 N   0  0  0  0  0  0  0  0  0  0  0  0
    3.2789    1.2375    0.0000 C   0  0  0  0  0  0  0  0  0  0  0  0
    3.9934    0.8250    0.0000 N   0  0  0  0  0  0  0  0  0  0  0  0
    3.9934    0.0000    0.0000 C   0  0  0  0  0  0  0  0  0  0  0  0
    3.2789   -0.4125    0.0000 N   0  0  0  0  0  0  0  0  0  0  0  0
    2.5645    0.0000    0.0000 C   0  0  0  0  0  0  0  0  0  0  0  0
    2.5645    0.8250    0.0000 C   0  0  0  0  0  0  0  0  0  0  0  0
    1.7798    1.0799    0.0000 N   0  0  0  0  0  0  0  0  0  0  0  0
    1.2949    0.4125    0.0000 C   0  0  0  0  0  0  0  0  0  0  0  0
    1.7798   -0.2549    0.0000 N   0  0  0  0  0  0  0  0  0  0  0  0
    1.5249   -1.0396    0.0000 C   0  0  2  0  0  0  0  0  0  0  0  0
    2.0098   -1.7070    0.0000 O   0  0  0  0  0  0  0  0  0  0  0  0
    1.5249   -2.3744    0.0000 C   0  0  2  0  0  0  0  0  0  0  0  0
    1.7798   -3.1591    0.0000 C   0  0  0  0  0  0  0  0  0  0  0  0
    2.5868   -3.3306    0.0000 O   0  0  0  0  0  0  0  0  0  0  0  0
    2.8417   -4.1152    0.0000 S   0  0  0  0  0  0  0  0  0  0  0  0
    2.0571   -4.3701    0.0000 O   0  0  0  0  0  0  0  0  0  0  0  0
    3.6264   -3.8603    0.0000 O   0  0  0  0  0  0  0  0  0  0  0  0
    3.0967   -4.8998    0.0000 N   0  0  0  0  0  0  0  0  0  0  0  0
    3.9037   -5.0714    0.0000 C   0  0  0  0  0  0  0  0  0  0  0  0
    4.4557   -4.4583    0.0000 O   0  0  0  0  0  0  0  0  0  0  0  0
    4.1586   -5.8560    0.0000 C   0  0  0  0  0  0  0  0  0  0  0  0
    4.9656   -6.0275    0.0000 C   0  0  0  0  0  0  0  0  0  0  0  0
    5.2205   -6.8121    0.0000 C   0  0  0  0  0  0  0  0  0  0  0  0
    4.6685   -7.4252    0.0000 C   0  0  0  0  0  0  0  0  0  0  0  0
    3.8615   -7.2537    0.0000 C   0  0  0  0  0  0  0  0  0  0  0  0
    3.6066   -6.4691    0.0000 C   0  0  0  0  0  0  0  0  0  0  0  0
    2.7996   -6.2975    0.0000 O   0  0  0  0  0  0  0  0  0  0  0  0
    0.7403   -2.1195    0.0000 C   0  0  1  0  0  0  0  0  0  0  0  0
    0.0728   -2.6044    0.0000 O   0  0  0  0  0  0  0  0  0  0  0  0
    0.7403   -1.2945    0.0000 C   0  0  1  0  0  0  0  0  0  0  0  0
    0.0728   -0.8096    0.0000 O   0  0  0  0  0  0  0  0  0  0  0  0
  1  2  1  0  0  0  0
  2  3  1  0  0  0  0
  3  4  2  0  0  0  0
  4  5  1  0  0  0  0
  5  6  2  0  0  0  0
  6  7  1  0  0  0  0
  2  7  2  0  0  0  0
  7  8  1  0  0  0  0
  8  9  2  0  0  0  0
  9 10  1  0  0  0  0
  6 10  1  0  0  0  0
 11 10  1  6  0  0  0
 11 12  1  0  0  0  0
 12 13  1  0  0  0  0
 13 14  1  6  0  0  0
 14 15  1  0  0  0  0
 15 16  1  0  0  0  0
 16 17  2  0  0  0  0
 16 18  2  0  0  0  0
 16 19  1  0  0  0  0
 19 20  1  0  0  0  0
 20 21  2  0  0  0  0
 20 22  1  0  0  0  0
 22 23  2  0  0  0  0
 23 24  1  0  0  0  0
 24 25  2  0  0  0  0
 25 26  1  0  0  0  0
 26 27  2  0  0  0  0
 22 27  1  0  0  0  0
 27 28  1  0  0  0  0
 13 29  1  0  0  0  0
 29 30  1  1  0  0  0
 29 31  1  0  0  0  0
 11 31  1  0  0  0  0
 31 32  1  1  0  0  0
M  END
> <COMPOUND_ID>
MMV687700

$$$$

  Mrv0541 04191616472D          

 28 32  0  0  0  0            999 V2000
   -2.6462    0.7310    0.0000 C   0  0  0  0  0  0  0  0  0  0  0  0
   -1.8212    0.7310    0.0000 O   0  0  0  0  0  0  0  0  0  0  0  0
   -1.4087    0.0165    0.0000 C   0  0  0  0  0  0  0  0  0  0  0  0
   -1.8212   -0.6979    0.0000 C   0  0  0  0  0  0  0  0  0  0  0  0
   -1.4087   -1.4124    0.0000 C   0  0  0  0  0  0  0  0  0  0  0  0
   -0.5837   -1.4124    0.0000 C   0  0  0  0  0  0  0  0  0  0  0  0
   -0.1712   -0.6979    0.0000 C   0  0  0  0  0  0  0  0  0  0  0  0
   -0.5837    0.0165    0.0000 N   0  0  0  0  0  0  0  0  0  0  0  0
    0.6538   -0.6979    0.0000 C   0  0  0  0  0  0  0  0  0  0  0  0
    1.1387   -0.0305    0.0000 N   0  0  0  0  0  0  0  0  0  0  0  0
    1.9233   -0.2854    0.0000 C   0  0  0  0  0  0  0  0  0  0  0  0
    2.6378    0.1271    0.0000 C   0  0  0  0  0  0  0  0  0  0  0  0
    3.3523   -0.2854    0.0000 C   0  0  0  0  0  0  0  0  0  0  0  0
    3.3523   -1.1104    0.0000 C   0  0  0  0  0  0  0  0  0  0  0  0
    2.6378   -1.5229    0.0000 C   0  0  0  0  0  0  0  0  0  0  0  0
    1.9233   -1.1104    0.0000 C   0  0  0  0  0  0  0  0  0  0  0  0
    1.1387   -1.3654    0.0000 N   0  0  0  0  0  0  0  0  0  0  0  0
    0.8838   -2.1500    0.0000 C   0  0  0  0  0  0  0  0  0  0  0  0
    1.4358   -2.7631    0.0000 C   0  0  0  0  0  0  0  0  0  0  0  0
    2.2563   -2.6769    0.0000 C   0  0  0  0  0  0  0  0  0  0  0  0
    2.5919   -3.4305    0.0000 C   0  0  0  0  0  0  0  0  0  0  0  0
    1.9788   -3.9826    0.0000 C   0  0  0  0  0  0  0  0  0  0  0  0
    1.2643   -3.5701    0.0000 N   0  0  0  0  0  0  0  0  0  0  0  0
    2.6378    0.9521    0.0000 N   0  0  0  0  0  0  0  0  0  0  0  0
    1.9704    1.4370    0.0000 C   0  0  0  0  0  0  0  0  0  0  0  0
    2.2253    2.2216    0.0000 C   0  0  0  0  0  0  0  0  0  0  0  0
    3.0503    2.2216    0.0000 C   0  0  0  0  0  0  0  0  0  0  0  0
    3.3053    1.4370    0.0000 C   0  0  0  0  0  0  0  0  0  0  0  0
  1  2  1  0  0  0  0
  2  3  1  0  0  0  0
  3  4  2  0  0  0  0
  4  5  1  0  0  0  0
  5  6  2  0  0  0  0
  6  7  1  0  0  0  0
  7  8  2  0  0  0  0
  3  8  1  0  0  0  0
  7  9  1  0  0  0  0
  9 10  2  0  0  0  0
 10 11  1  0  0  0  0
 11 12  2  0  0  0  0
 12 13  1  0  0  0  0
 13 14  2  0  0  0  0
 14 15  1  0  0  0  0
 15 16  2  0  0  0  0
 11 16  1  0  0  0  0
 16 17  1  0  0  0  0
  9 17  1  0  0  0  0
 17 18  1  0  0  0  0
 18 19  1  0  0  0  0
 19 20  1  0  0  0  0
 20 21  1  0  0  0  0
 21 22  1  0  0  0  0
 22 23  1  0  0  0  0
 19 23  1  0  0  0  0
 12 24  1  0  0  0  0
 24 25  1  0  0  0  0
 25 26  1  0  0  0  0
 26 27  1  0  0  0  0
 27 28  1  0  0  0  0
 24 28  1  0  0  0  0
M  END
> <COMPOUND_ID>
MMV687703

$$$$

  Mrv0541 04191616472D          

 22 25  0  0  0  0            999 V2000
    4.0668    2.3479    0.0000 C   0  0  0  0  0  0  0  0  0  0  0  0
    3.3523    1.9354    0.0000 C   0  0  0  0  0  0  0  0  0  0  0  0
    3.3523    1.1104    0.0000 C   0  0  0  0  0  0  0  0  0  0  0  0
    2.6378    0.6979    0.0000 C   0  0  0  0  0  0  0  0  0  0  0  0
    1.9233    1.1104    0.0000 C   0  0  0  0  0  0  0  0  0  0  0  0
    1.1387    0.8555    0.0000 N   0  0  0  0  0  0  0  0  0  0  0  0
    0.6538    1.5229    0.0000 C   0  0  0  0  0  0  0  0  0  0  0  0
   -0.1712    1.5229    0.0000 C   0  0  0  0  0  0  0  0  0  0  0  0
   -0.5837    0.8085    0.0000 C   0  0  0  0  0  0  0  0  0  0  0  0
   -1.4087    0.8085    0.0000 C   0  0  0  0  0  0  0  0  0  0  0  0
   -1.8212    1.5229    0.0000 C   0  0  0  0  0  0  0  0  0  0  0  0
   -1.4087    2.2374    0.0000 N   0  0  0  0  0  0  0  0  0  0  0  0
   -0.5837    2.2374    0.0000 C   0  0  0  0  0  0  0  0  0  0  0  0
    1.1387    2.1904    0.0000 C   0  0  0  0  0  0  0  0  0  0  0  0
    0.8838    2.9750    0.0000 C   0  0  0  0  0  0  0  0  0  0  0  0
    0.0768    3.1465    0.0000 C   0  0  0  0  0  0  0  0  0  0  0  0
   -0.1781    3.9312    0.0000 C   0  0  0  0  0  0  0  0  0  0  0  0
    0.3739    4.5442    0.0000 N   0  0  0  0  0  0  0  0  0  0  0  0
    1.1809    4.3727    0.0000 C   0  0  0  0  0  0  0  0  0  0  0  0
    1.4358    3.5881    0.0000 C   0  0  0  0  0  0  0  0  0  0  0  0
    1.9233    1.9354    0.0000 C   0  0  0  0  0  0  0  0  0  0  0  0
    2.6378    2.3479    0.0000 C   0  0  0  0  0  0  0  0  0  0  0  0
  1  2  1  0  0  0  0
  2  3  2  0  0  0  0
  3  4  1  0  0  0  0
  4  5  2  0  0  0  0
  5  6  1  0  0  0  0
  6  7  1  0  0  0  0
  7  8  1  0  0  0  0
  8  9  1  0  0  0  0
  9 10  1  0  0  0  0
 10 11  1  0  0  0  0
 11 12  1  0  0  0  0
 12 13  1  0  0  0  0
  8 13  1  0  0  0  0
  7 14  2  0  0  0  0
 14 15  1  0  0  0  0
 15 16  2  0  0  0  0
 16 17  1  0  0  0  0
 17 18  2  0  0  0  0
 18 19  1  0  0  0  0
 19 20  2  0  0  0  0
 15 20  1  0  0  0  0
 14 21  1  0  0  0  0
  5 21  1  0  0  0  0
 21 22  2  0  0  0  0
  2 22  1  0  0  0  0
M  END
> <COMPOUND_ID>
MMV024311

$$$$

  Mrv0541 04191616472D          

 29 32  0  0  1  0            999 V2000
    5.6091   -2.5366    0.0000 O   0  0  0  0  0  0  0  0  0  0  0  0
    6.3235   -2.9491    0.0000 C   0  0  0  0  0  0  0  0  0  0  0  0
    6.3235   -3.7741    0.0000 C   0  0  1  0  0  0  0  0  0  0  0  0
    6.9910   -4.2590    0.0000 C   0  0  0  0  0  0  0  0  0  0  0  0
    6.7360   -5.0437    0.0000 N   0  0  0  0  0  0  0  0  0  0  0  0
    5.9110   -5.0437    0.0000 C   0  0  0  0  0  0  0  0  0  0  0  0
    5.4261   -5.7111    0.0000 O   0  0  0  0  0  0  0  0  0  0  0  0
    5.6561   -4.2590    0.0000 O   0  0  0  0  0  0  0  0  0  0  0  0
    7.2210   -5.7111    0.0000 C   0  0  0  0  0  0  0  0  0  0  0  0
    8.0414   -5.6249    0.0000 C   0  0  0  0  0  0  0  0  0  0  0  0
    8.5264   -6.2923    0.0000 C   0  0  0  0  0  0  0  0  0  0  0  0
    9.3468   -6.2061    0.0000 F   0  0  0  0  0  0  0  0  0  0  0  0
    8.1908   -7.0460    0.0000 C   0  0  0  0  0  0  0  0  0  0  0  0
    8.6757   -7.7134    0.0000 C   0  0  0  0  0  0  0  0  0  0  0  0
    9.4962   -7.6272    0.0000 C   0  0  0  0  0  0  0  0  0  0  0  0
    9.9811   -8.2946    0.0000 C   0  0  0  0  0  0  0  0  0  0  0  0
    9.6456   -9.0483    0.0000 N   0  0  0  0  0  0  0  0  0  0  0  0
   10.1305   -9.7157    0.0000 C   0  0  0  0  0  0  0  0  0  0  0  0
    9.7949  -10.4694    0.0000 C   0  0  0  0  0  0  0  0  0  0  0  0
   10.2799  -11.1368    0.0000 C   0  0  0  0  0  0  0  0  0  0  0  0
    9.9443  -11.8905    0.0000 C   0  0  0  0  0  0  0  0  0  0  0  0
    9.1238  -11.9767    0.0000 C   0  0  0  0  0  0  0  0  0  0  0  0
    8.6389  -11.3093    0.0000 C   0  0  0  0  0  0  0  0  0  0  0  0
    8.9745  -10.5556    0.0000 C   0  0  0  0  0  0  0  0  0  0  0  0
    8.8251   -9.1345    0.0000 C   0  0  0  0  0  0  0  0  0  0  0  0
    8.3402   -8.4671    0.0000 C   0  0  0  0  0  0  0  0  0  0  0  0
    7.3703   -7.1322    0.0000 C   0  0  0  0  0  0  0  0  0  0  0  0
    7.0348   -7.8859    0.0000 F   0  0  0  0  0  0  0  0  0  0  0  0
    6.8854   -6.4648    0.0000 C   0  0  0  0  0  0  0  0  0  0  0  0
  1  2  1  0  0  0  0
  3  2  1  1  0  0  0
  3  4  1  0  0  0  0
  4  5  1  0  0  0  0
  5  6  1  0  0  0  0
  6  7  2  0  0  0  0
  6  8  1  0  0  0  0
  3  8  1  0  0  0  0
  5  9  1  0  0  0  0
  9 10  2  0  0  0  0
 10 11  1  0  0  0  0
 11 12  1  0  0  0  0
 11 13  2  0  0  0  0
 13 14  1  0  0  0  0
 14 15  2  0  0  0  0
 15 16  1  0  0  0  0
 16 17  1  0  0  0  0
 17 18  1  0  0  0  0
 18 19  1  0  0  0  0
 19 20  2  0  0  0  0
 20 21  1  0  0  0  0
 21 22  2  0  0  0  0
 22 23  1  0  0  0  0
 23 24  2  0  0  0  0
 19 24  1  0  0  0  0
 17 25  1  0  0  0  0
 25 26  1  0  0  0  0
 14 26  1  0  0  0  0
 13 27  1  0  0  0  0
 27 28  1  0  0  0  0
 27 29  2  0  0  0  0
  9 29  1  0  0  0  0
M  END
> <COMPOUND_ID>
MMV687729

$$$$

  Mrv0541 04191616472D          

 24 26  0  0  0  0            999 V2000
   -1.4289    0.8250    0.0000 C   0  0  0  0  0  0  0  0  0  0  0  0
   -1.4289   -0.0000    0.0000 C   0  0  0  0  0  0  0  0  0  0  0  0
   -0.7145   -0.4125    0.0000 C   0  0  0  0  0  0  0  0  0  0  0  0
   -0.7145   -1.2375    0.0000 C   0  0  0  0  0  0  0  0  0  0  0  0
    0.0000   -1.6500    0.0000 O   0  0  0  0  0  0  0  0  0  0  0  0
    0.7145   -1.2375    0.0000 C   0  0  0  0  0  0  0  0  0  0  0  0
    1.4289   -1.6500    0.0000 C   0  0  0  0  0  0  0  0  0  0  0  0
    1.4289   -2.4750    0.0000 O   0  0  0  0  0  0  0  0  0  0  0  0
    2.1434   -1.2375    0.0000 N   0  0  0  0  0  0  0  0  0  0  0  0
    2.8579   -1.6500    0.0000 C   0  0  0  0  0  0  0  0  0  0  0  0
    3.5724   -1.2375    0.0000 C   0  0  0  0  0  0  0  0  0  0  0  0
    3.5724   -0.4125    0.0000 C   0  0  0  0  0  0  0  0  0  0  0  0
    4.2868    0.0000    0.0000 C   0  0  0  0  0  0  0  0  0  0  0  0
    5.0013   -0.4125    0.0000 C   0  0  0  0  0  0  0  0  0  0  0  0
    5.0013   -1.2375    0.0000 C   0  0  0  0  0  0  0  0  0  0  0  0
    4.2868   -1.6500    0.0000 C   0  0  0  0  0  0  0  0  0  0  0  0
   -1.4289   -1.6500    0.0000 C   0  0  0  0  0  0  0  0  0  0  0  0
   -1.4289   -2.4750    0.0000 C   0  0  0  0  0  0  0  0  0  0  0  0
   -2.1434   -2.8875    0.0000 C   0  0  0  0  0  0  0  0  0  0  0  0
   -2.1434   -3.7125    0.0000 Br  0  0  0  0  0  0  0  0  0  0  0  0
   -2.8579   -2.4750    0.0000 C   0  0  0  0  0  0  0  0  0  0  0  0
   -2.8579   -1.6500    0.0000 C   0  0  0  0  0  0  0  0  0  0  0  0
   -2.1434   -1.2375    0.0000 C   0  0  0  0  0  0  0  0  0  0  0  0
   -2.1434   -0.4125    0.0000 N   0  0  0  0  0  0  0  0  0  0  0  0
  1  2  1  0  0  0  0
  2  3  2  0  0  0  0
  3  4  1  0  0  0  0
  4  5  1  0  0  0  0
  5  6  1  0  0  0  0
  6  7  1  0  0  0  0
  7  8  2  0  0  0  0
  7  9  1  0  0  0  0
  9 10  1  0  0  0  0
 10 11  1  0  0  0  0
 11 12  2  0  0  0  0
 12 13  1  0  0  0  0
 13 14  2  0  0  0  0
 14 15  1  0  0  0  0
 15 16  2  0  0  0  0
 11 16  1  0  0  0  0
  4 17  2  0  0  0  0
 17 18  1  0  0  0  0
 18 19  2  0  0  0  0
 19 20  1  0  0  0  0
 19 21  1  0  0  0  0
 21 22  2  0  0  0  0
 22 23  1  0  0  0  0
 17 23  1  0  0  0  0
 23 24  2  0  0  0  0
  2 24  1  0  0  0  0
M  END
> <COMPOUND_ID>
MMV687747

$$$$

  Mrv0541 04191616472D          

 25 26  0  0  0  0            999 V2000
   -1.4289    0.8250    0.0000 O   0  0  0  0  0  0  0  0  0  0  0  0
   -1.4289    0.0000    0.0000 C   0  0  0  0  0  0  0  0  0  0  0  0
   -0.7145   -0.4125    0.0000 C   0  0  0  0  0  0  0  0  0  0  0  0
   -0.7145   -1.2375    0.0000 C   0  0  0  0  0  0  0  0  0  0  0  0
   -1.4289   -1.6500    0.0000 C   0  0  0  0  0  0  0  0  0  0  0  0
   -1.4289   -2.4750    0.0000 Cl  0  0  0  0  0  0  0  0  0  0  0  0
   -2.1434   -1.2375    0.0000 C   0  0  0  0  0  0  0  0  0  0  0  0
   -2.1434   -0.4125    0.0000 C   0  0  0  0  0  0  0  0  0  0  0  0
   -2.8579    0.0000    0.0000 C   0  0  0  0  0  0  0  0  0  0  0  0
   -2.8579    0.8250    0.0000 O   0  0  0  0  0  0  0  0  0  0  0  0
   -3.5724   -0.4125    0.0000 N   0  0  0  0  0  0  0  0  0  0  0  0
   -3.5724   -1.2375    0.0000 C   0  0  0  0  0  0  0  0  0  0  0  0
   -2.8579   -1.6500    0.0000 C   0  0  0  0  0  0  0  0  0  0  0  0
   -2.8579   -2.4750    0.0000 C   0  0  0  0  0  0  0  0  0  0  0  0
   -3.5724   -2.8875    0.0000 C   0  0  0  0  0  0  0  0  0  0  0  0
   -4.2868   -2.4750    0.0000 C   0  0  0  0  0  0  0  0  0  0  0  0
   -4.2868   -1.6500    0.0000 C   0  0  0  0  0  0  0  0  0  0  0  0
   -5.0013   -2.8875    0.0000 C   0  0  0  0  0  0  0  0  0  0  0  0
   -5.7158   -3.3000    0.0000 F   0  0  0  0  0  0  0  0  0  0  0  0
   -5.4138   -2.1730    0.0000 F   0  0  0  0  0  0  0  0  0  0  0  0
   -4.5888   -3.6020    0.0000 F   0  0  0  0  0  0  0  0  0  0  0  0
   -3.5724   -3.7125    0.0000 C   0  0  0  0  0  0  0  0  0  0  0  0
   -3.5724   -4.5375    0.0000 F   0  0  0  0  0  0  0  0  0  0  0  0
   -4.3570   -3.9674    0.0000 F   0  0  0  0  0  0  0  0  0  0  0  0
   -2.7474   -3.7125    0.0000 F   0  0  0  0  0  0  0  0  0  0  0  0
  1  2  1  0  0  0  0
  2  3  2  0  0  0  0
  3  4  1  0  0  0  0
  4  5  2  0  0  0  0
  5  6  1  0  0  0  0
  5  7  1  0  0  0  0
  7  8  2  0  0  0  0
  2  8  1  0  0  0  0
  8  9  1  0  0  0  0
  9 10  2  0  0  0  0
  9 11  1  0  0  0  0
 11 12  1  0  0  0  0
 12 13  2  0  0  0  0
 13 14  1  0  0  0  0
 14 15  2  0  0  0  0
 15 16  1  0  0  0  0
 16 17  2  0  0  0  0
 12 17  1  0  0  0  0
 16 18  1  0  0  0  0
 18 19  1  0  0  0  0
 18 20  1  0  0  0  0
 18 21  1  0  0  0  0
 15 22  1  0  0  0  0
 22 23  1  0  0  0  0
 22 24  1  0  0  0  0
 22 25  1  0  0  0  0
M  END
> <COMPOUND_ID>
MMV687807

$$$$

  Mrv0541 04191616472D          

 38 41  0  0  0  0            999 V2000
   -4.2868   -6.6000    0.0000 C   0  0  0  0  0  0  0  0  0  0  0  0
   -4.2868   -7.4250    0.0000 N   0  0  0  0  0  0  0  0  0  0  0  0
   -3.5724   -7.8375    0.0000 C   0  0  0  0  0  0  0  0  0  0  0  0
   -3.5724   -8.6625    0.0000 C   0  0  0  0  0  0  0  0  0  0  0  0
   -4.2868   -9.0750    0.0000 N   0  0  0  0  0  0  0  0  0  0  0  0
   -4.2868   -9.9000    0.0000 C   0  0  0  0  0  0  0  0  0  0  0  0
   -3.5724  -10.3125    0.0000 C   0  0  0  0  0  0  0  0  0  0  0  0
   -3.5724  -11.1375    0.0000 C   0  0  0  0  0  0  0  0  0  0  0  0
   -2.8579  -11.5500    0.0000 O   0  0  0  0  0  0  0  0  0  0  0  0
   -2.8579  -12.3750    0.0000 C   0  0  0  0  0  0  0  0  0  0  0  0
   -2.1434  -12.7875    0.0000 N   0  0  0  0  0  0  0  0  0  0  0  0
   -2.1434  -13.6125    0.0000 C   0  0  0  0  0  0  0  0  0  0  0  0
   -2.8579  -14.0250    0.0000 C   0  0  0  0  0  0  0  0  0  0  0  0
   -2.8579  -14.8500    0.0000 N   0  0  0  0  0  0  0  0  0  0  0  0
   -2.1434  -15.2625    0.0000 C   0  0  0  0  0  0  0  0  0  0  0  0
   -1.4289  -14.8500    0.0000 N   0  0  0  0  0  0  0  0  0  0  0  0
   -0.7145  -15.2625    0.0000 C   0  0  0  0  0  0  0  0  0  0  0  0
   -0.7145  -16.0875    0.0000 C   0  0  0  0  0  0  0  0  0  0  0  0
   -1.4289  -16.5000    0.0000 N   0  0  0  0  0  0  0  0  0  0  0  0
   -2.1434  -16.0875    0.0000 C   0  0  0  0  0  0  0  0  0  0  0  0
   -2.8579  -16.5000    0.0000 C   0  0  0  0  0  0  0  0  0  0  0  0
   -3.5724  -16.0875    0.0000 O   0  0  0  0  0  0  0  0  0  0  0  0
   -2.8579  -17.3250    0.0000 N   0  0  0  0  0  0  0  0  0  0  0  0
   -0.0000  -16.5000    0.0000 C   0  0  0  0  0  0  0  0  0  0  0  0
    0.7145  -16.0875    0.0000 C   0  0  0  0  0  0  0  0  0  0  0  0
    1.4289  -16.5000    0.0000 C   0  0  0  0  0  0  0  0  0  0  0  0
    1.4289  -17.3250    0.0000 C   0  0  0  0  0  0  0  0  0  0  0  0
    0.7145  -17.7375    0.0000 C   0  0  0  0  0  0  0  0  0  0  0  0
    0.7145  -18.5625    0.0000 F   0  0  0  0  0  0  0  0  0  0  0  0
   -0.0000  -17.3250    0.0000 C   0  0  0  0  0  0  0  0  0  0  0  0
    2.1434  -17.7375    0.0000 C   0  0  0  0  0  0  0  0  0  0  0  0
    2.8579  -18.1500    0.0000 F   0  0  0  0  0  0  0  0  0  0  0  0
    1.7309  -18.4520    0.0000 F   0  0  0  0  0  0  0  0  0  0  0  0
    2.5559  -17.0230    0.0000 F   0  0  0  0  0  0  0  0  0  0  0  0
   -3.5724  -13.6125    0.0000 C   0  0  0  0  0  0  0  0  0  0  0  0
   -3.5724  -12.7875    0.0000 N   0  0  0  0  0  0  0  0  0  0  0  0
   -5.0013   -8.6625    0.0000 C   0  0  0  0  0  0  0  0  0  0  0  0
   -5.0013   -7.8375    0.0000 C   0  0  0  0  0  0  0  0  0  0  0  0
  1  2  1  0  0  0  0
  2  3  1  0  0  0  0
  3  4  1  0  0  0  0
  4  5  1  0  0  0  0
  5  6  1  0  0  0  0
  6  7  1  0  0  0  0
  7  8  1  0  0  0  0
  8  9  1  0  0  0  0
  9 10  1  0  0  0  0
 10 11  2  0  0  0  0
 11 12  1  0  0  0  0
 12 13  2  0  0  0  0
 13 14  1  0  0  0  0
 14 15  1  0  0  0  0
 15 16  2  0  0  0  0
 16 17  1  0  0  0  0
 17 18  2  0  0  0  0
 18 19  1  0  0  0  0
 19 20  2  0  0  0  0
 15 20  1  0  0  0  0
 20 21  1  0  0  0  0
 21 22  2  0  0  0  0
 21 23  1  0  0  0  0
 18 24  1  0  0  0  0
 24 25  2  0  0  0  0
 25 26  1  0  0  0  0
 26 27  2  0  0  0  0
 27 28  1  0  0  0  0
 28 29  1  0  0  0  0
 28 30  2  0  0  0  0
 24 30  1  0  0  0  0
 27 31  1  0  0  0  0
 31 32  1  0  0  0  0
 31 33  1  0  0  0  0
 31 34  1  0  0  0  0
 13 35  1  0  0  0  0
 35 36  2  0  0  0  0
 10 36  1  0  0  0  0
  5 37  1  0  0  0  0
 37 38  1  0  0  0  0
  2 38  1  0  0  0  0
M  END
> <COMPOUND_ID>
MMV687812

$$$$

  Mrv0541 04191616472D          

 25 28  0  0  0  0            999 V2000
    4.7812    6.0604    0.0000 O   0  0  0  0  0  0  0  0  0  0  0  0
    4.0668    5.6479    0.0000 C   0  0  0  0  0  0  0  0  0  0  0  0
    3.3523    6.0604    0.0000 N   0  0  0  0  0  0  0  0  0  0  0  0
    3.3523    6.8854    0.0000 C   0  0  0  0  0  0  0  0  0  0  0  0
    2.6378    7.2979    0.0000 C   0  0  0  0  0  0  0  0  0  0  0  0
    1.8841    6.9624    0.0000 C   0  0  0  0  0  0  0  0  0  0  0  0
    1.3321    7.5755    0.0000 O   0  0  0  0  0  0  0  0  0  0  0  0
    1.7446    8.2900    0.0000 C   0  0  0  0  0  0  0  0  0  0  0  0
    2.5516    8.1184    0.0000 C   0  0  0  0  0  0  0  0  0  0  0  0
    4.0668    4.8229    0.0000 N   0  0  0  0  0  0  0  0  0  0  0  0
    4.7812    4.4104    0.0000 C   0  0  0  0  0  0  0  0  0  0  0  0
    4.7812    3.5854    0.0000 C   0  0  0  0  0  0  0  0  0  0  0  0
    4.0668    3.1729    0.0000 N   0  0  0  0  0  0  0  0  0  0  0  0
    4.0668    2.3479    0.0000 C   0  0  0  0  0  0  0  0  0  0  0  0
    3.3523    1.9354    0.0000 C   0  0  0  0  0  0  0  0  0  0  0  0
    3.3523    1.1104    0.0000 C   0  0  0  0  0  0  0  0  0  0  0  0
    2.6378    0.6979    0.0000 C   0  0  0  0  0  0  0  0  0  0  0  0
    1.9233    1.1104    0.0000 C   0  0  0  0  0  0  0  0  0  0  0  0
    1.1387    0.8555    0.0000 O   0  0  0  0  0  0  0  0  0  0  0  0
    0.6538    1.5229    0.0000 C   0  0  0  0  0  0  0  0  0  0  0  0
    1.1387    2.1904    0.0000 O   0  0  0  0  0  0  0  0  0  0  0  0
    1.9233    1.9354    0.0000 C   0  0  0  0  0  0  0  0  0  0  0  0
    2.6378    2.3479    0.0000 C   0  0  0  0  0  0  0  0  0  0  0  0
    3.3523    3.5854    0.0000 C   0  0  0  0  0  0  0  0  0  0  0  0
    3.3523    4.4104    0.0000 C   0  0  0  0  0  0  0  0  0  0  0  0
  1  2  2  0  0  0  0
  2  3  1  0  0  0  0
  3  4  1  0  0  0  0
  4  5  1  0  0  0  0
  5  6  2  0  0  0  0
  6  7  1  0  0  0  0
  7  8  1  0  0  0  0
  8  9  2  0  0  0  0
  5  9  1  0  0  0  0
  2 10  1  0  0  0  0
 10 11  1  0  0  0  0
 11 12  1  0  0  0  0
 12 13  1  0  0  0  0
 13 14  1  0  0  0  0
 14 15  1  0  0  0  0
 15 16  2  0  0  0  0
 16 17  1  0  0  0  0
 17 18  2  0  0  0  0
 18 19  1  0  0  0  0
 19 20  1  0  0  0  0
 20 21  1  0  0  0  0
 21 22  1  0  0  0  0
 18 22  1  0  0  0  0
 22 23  2  0  0  0  0
 15 23  1  0  0  0  0
 13 24  1  0  0  0  0
 24 25  1  0  0  0  0
 10 25  1  0  0  0  0
M  END
> <COMPOUND_ID>
MMV688553

$$$$

  Mrv0541 04191616472D          

 22 24  0  0  0  0            999 V2000
    2.0367   -0.4741    0.0000 Cl  0  0  0  0  0  0  0  0  0  0  0  0
    2.0367   -1.2991    0.0000 C   0  0  0  0  0  0  0  0  0  0  0  0
    2.7041   -1.7840    0.0000 C   0  0  0  0  0  0  0  0  0  0  0  0
    2.4492   -2.5687    0.0000 C   0  0  0  0  0  0  0  0  0  0  0  0
    1.6242   -2.5687    0.0000 C   0  0  0  0  0  0  0  0  0  0  0  0
    1.1393   -3.2361    0.0000 C   0  0  0  0  0  0  0  0  0  0  0  0
    0.3188   -3.1499    0.0000 N   0  0  0  0  0  0  0  0  0  0  0  0
   -0.1661   -3.8173    0.0000 C   0  0  0  0  0  0  0  0  0  0  0  0
   -0.9866   -3.7311    0.0000 C   0  0  0  0  0  0  0  0  0  0  0  0
   -1.3222   -2.9774    0.0000 N   0  0  0  0  0  0  0  0  0  0  0  0
   -0.8372   -2.3099    0.0000 C   0  0  0  0  0  0  0  0  0  0  0  0
   -0.0168   -2.3962    0.0000 C   0  0  0  0  0  0  0  0  0  0  0  0
   -2.1426   -2.8911    0.0000 C   0  0  0  0  0  0  0  0  0  0  0  0
   -2.6276   -3.5586    0.0000 O   0  0  0  0  0  0  0  0  0  0  0  0
   -2.4782   -2.1375    0.0000 N   0  0  0  0  0  0  0  0  0  0  0  0
   -3.2987   -2.0512    0.0000 C   0  0  0  0  0  0  0  0  0  0  0  0
   -3.6342   -1.2976    0.0000 C   0  0  0  0  0  0  0  0  0  0  0  0
   -4.4412   -1.1260    0.0000 O   0  0  0  0  0  0  0  0  0  0  0  0
   -4.5274   -0.3056    0.0000 C   0  0  0  0  0  0  0  0  0  0  0  0
   -3.7738    0.0300    0.0000 C   0  0  0  0  0  0  0  0  0  0  0  0
   -3.2217   -0.5831    0.0000 C   0  0  0  0  0  0  0  0  0  0  0  0
    1.3693   -1.7840    0.0000 S   0  0  0  0  0  0  0  0  0  0  0  0
  1  2  1  0  0  0  0
  2  3  2  0  0  0  0
  3  4  1  0  0  0  0
  4  5  2  0  0  0  0
  5  6  1  0  0  0  0
  6  7  1  0  0  0  0
  7  8  1  0  0  0  0
  8  9  1  0  0  0  0
  9 10  1  0  0  0  0
 10 11  1  0  0  0  0
 11 12  1  0  0  0  0
  7 12  1  0  0  0  0
 10 13  1  0  0  0  0
 13 14  2  0  0  0  0
 13 15  1  0  0  0  0
 15 16  1  0  0  0  0
 16 17  1  0  0  0  0
 17 18  1  0  0  0  0
 18 19  1  0  0  0  0
 19 20  2  0  0  0  0
 20 21  1  0  0  0  0
 17 21  2  0  0  0  0
  5 22  1  0  0  0  0
  2 22  1  0  0  0  0
M  END
> <COMPOUND_ID>
MMV688555

$$$$

  Mrv0541 04191616472D          

 17 18  0  0  0  0            999 V2000
    1.3222   -0.0616    0.0000 N   0  0  0  0  0  0  0  0  0  0  0  0
    1.3222   -0.8866    0.0000 C   0  0  0  0  0  0  0  0  0  0  0  0
    2.0367   -1.2991    0.0000 C   0  0  0  0  0  0  0  0  0  0  0  0
    2.0367   -2.1241    0.0000 C   0  0  0  0  0  0  0  0  0  0  0  0
    2.7041   -2.6090    0.0000 C   0  0  0  0  0  0  0  0  0  0  0  0
    2.4492   -3.3937    0.0000 C   0  0  0  0  0  0  0  0  0  0  0  0
    1.6242   -3.3937    0.0000 C   0  0  0  0  0  0  0  0  0  0  0  0
    1.3693   -2.6090    0.0000 S   0  0  0  0  0  0  0  0  0  0  0  0
    2.7512   -0.8866    0.0000 S   0  0  0  0  0  0  0  0  0  0  0  0
    3.1637   -1.6011    0.0000 O   0  0  0  0  0  0  0  0  0  0  0  0
    2.3387   -0.1721    0.0000 O   0  0  0  0  0  0  0  0  0  0  0  0
    3.4656   -0.4741    0.0000 C   0  0  0  0  0  0  0  0  0  0  0  0
    3.4656    0.3509    0.0000 C   0  0  0  0  0  0  0  0  0  0  0  0
    4.1801    0.7634    0.0000 C   0  0  0  0  0  0  0  0  0  0  0  0
    4.8946    0.3509    0.0000 C   0  0  0  0  0  0  0  0  0  0  0  0
    4.8946   -0.4741    0.0000 C   0  0  0  0  0  0  0  0  0  0  0  0
    4.1801   -0.8866    0.0000 C   0  0  0  0  0  0  0  0  0  0  0  0
  1  2  1  0  0  0  0
  2  3  1  0  0  0  0
  3  4  1  0  0  0  0
  4  5  2  0  0  0  0
  5  6  1  0  0  0  0
  6  7  2  0  0  0  0
  7  8  1  0  0  0  0
  4  8  1  0  0  0  0
  3  9  1  0  0  0  0
  9 10  2  0  0  0  0
  9 11  2  0  0  0  0
  9 12  1  0  0  0  0
 12 13  2  0  0  0  0
 13 14  1  0  0  0  0
 14 15  2  0  0  0  0
 15 16  1  0  0  0  0
 16 17  2  0  0  0  0
 12 17  1  0  0  0  0
M  END
> <COMPOUND_ID>
MMV688557

$$$$

  Mrv0541 04191616472D          

 17 18  0  0  0  0            999 V2000
    4.0668    2.3479    0.0000 C   0  0  0  0  0  0  0  0  0  0  0  0
    3.3523    1.9354    0.0000 N   0  0  0  0  0  0  0  0  0  0  0  0
    3.3523    1.1104    0.0000 C   0  0  0  0  0  0  0  0  0  0  0  0
    4.0668    0.6979    0.0000 O   0  0  0  0  0  0  0  0  0  0  0  0
    2.6378    0.6979    0.0000 N   0  0  0  0  0  0  0  0  0  0  0  0
    2.6378   -0.1271    0.0000 C   0  0  0  0  0  0  0  0  0  0  0  0
    1.9233    1.1104    0.0000 C   0  0  0  0  0  0  0  0  0  0  0  0
    1.1387    0.8555    0.0000 N   0  0  0  0  0  0  0  0  0  0  0  0
    0.6538    1.5229    0.0000 S   0  0  0  0  0  0  0  0  0  0  0  0
    1.1387    2.1904    0.0000 C   0  0  0  0  0  0  0  0  0  0  0  0
    1.9233    1.9354    0.0000 C   0  0  0  0  0  0  0  0  0  0  0  0
    2.6378    2.3479    0.0000 C   0  0  0  0  0  0  0  0  0  0  0  0
    2.6378    3.1729    0.0000 O   0  0  0  0  0  0  0  0  0  0  0  0
    0.8838    2.9750    0.0000 S   0  0  0  0  0  0  0  0  0  0  0  0
    0.6288    3.7596    0.0000 O   0  0  0  0  0  0  0  0  0  0  0  0
    1.6684    3.2299    0.0000 O   0  0  0  0  0  0  0  0  0  0  0  0
    0.0992    2.7201    0.0000 C   0  0  0  0  0  0  0  0  0  0  0  0
  1  2  1  0  0  0  0
  2  3  1  0  0  0  0
  3  4  2  0  0  0  0
  3  5  1  0  0  0  0
  5  6  1  0  0  0  0
  5  7  1  0  0  0  0
  7  8  2  0  0  0  0
  8  9  1  0  0  0  0
  9 10  1  0  0  0  0
 10 11  2  0  0  0  0
  7 11  1  0  0  0  0
 11 12  1  0  0  0  0
  2 12  1  0  0  0  0
 12 13  2  0  0  0  0
 10 14  1  0  0  0  0
 14 15  2  0  0  0  0
 14 16  2  0  0  0  0
 14 17  1  0  0  0  0
M  END
> <COMPOUND_ID>
MMV687251

$$$$

  Mrv0541 04191616472D          

 24 26  0  0  0  0            999 V2000
    1.3629   -1.2904    0.0000 C   0  0  0  0  0  0  0  0  0  0  0  0
    0.7498   -0.7384    0.0000 C   0  0  0  0  0  0  0  0  0  0  0  0
    0.9213    0.0686    0.0000 C   0  0  0  0  0  0  0  0  0  0  0  0
    0.3693    0.6817    0.0000 N   0  0  0  0  0  0  0  0  0  0  0  0
    0.7818    1.3961    0.0000 C   0  0  0  0  0  0  0  0  0  0  0  0
    0.5269    2.1807    0.0000 C   0  0  0  0  0  0  0  0  0  0  0  0
    1.0789    2.7938    0.0000 C   0  0  0  0  0  0  0  0  0  0  0  0
    1.8859    2.6223    0.0000 C   0  0  0  0  0  0  0  0  0  0  0  0
    2.1408    1.8377    0.0000 C   0  0  0  0  0  0  0  0  0  0  0  0
    1.5888    1.2246    0.0000 C   0  0  0  0  0  0  0  0  0  0  0  0
    1.6750    0.4041    0.0000 N   0  0  0  0  0  0  0  0  0  0  0  0
    2.3895   -0.0084    0.0000 C   0  0  0  0  0  0  0  0  0  0  0  0
    3.1039    0.4041    0.0000 C   0  0  0  0  0  0  0  0  0  0  0  0
    3.1039    1.2291    0.0000 O   0  0  0  0  0  0  0  0  0  0  0  0
    3.8184   -0.0084    0.0000 C   0  0  0  0  0  0  0  0  0  0  0  0
    4.5329    0.4041    0.0000 O   0  0  0  0  0  0  0  0  0  0  0  0
    5.2474   -0.0084    0.0000 C   0  0  0  0  0  0  0  0  0  0  0  0
    5.9618    0.4041    0.0000 C   0  0  0  0  0  0  0  0  0  0  0  0
    6.6763   -0.0084    0.0000 C   0  0  0  0  0  0  0  0  0  0  0  0
    7.3908    0.4041    0.0000 C   0  0  0  0  0  0  0  0  0  0  0  0
    6.6763   -0.8334    0.0000 C   0  0  0  0  0  0  0  0  0  0  0  0
    5.9618   -1.2459    0.0000 C   0  0  0  0  0  0  0  0  0  0  0  0
    5.2474   -0.8334    0.0000 C   0  0  0  0  0  0  0  0  0  0  0  0
    4.5329   -1.2459    0.0000 Cl  0  0  0  0  0  0  0  0  0  0  0  0
  1  2  1  0  0  0  0
  2  3  1  0  0  0  0
  3  4  2  0  0  0  0
  4  5  1  0  0  0  0
  5  6  2  0  0  0  0
  6  7  1  0  0  0  0
  7  8  2  0  0  0  0
  8  9  1  0  0  0  0
  9 10  2  0  0  0  0
  5 10  1  0  0  0  0
 10 11  1  0  0  0  0
  3 11  1  0  0  0  0
 11 12  1  0  0  0  0
 12 13  1  0  0  0  0
 13 14  1  0  0  0  0
 13 15  1  0  0  0  0
 15 16  1  0  0  0  0
 16 17  1  0  0  0  0
 17 18  2  0  0  0  0
 18 19  1  0  0  0  0
 19 20  1  0  0  0  0
 19 21  2  0  0  0  0
 21 22  1  0  0  0  0
 22 23  2  0  0  0  0
 17 23  1  0  0  0  0
 23 24  1  0  0  0  0
M  END
> <COMPOUND_ID>
MMV676449

$$$$

  Mrv0541 04191616472D          

 23 26  0  0  0  0            999 V2000
    2.1434   -2.8875    0.0000 C   0  0  0  0  0  0  0  0  0  0  0  0
    1.4289   -2.4750    0.0000 N   0  0  0  0  0  0  0  0  0  0  0  0
    1.4289   -1.6500    0.0000 C   0  0  0  0  0  0  0  0  0  0  0  0
    0.7145   -1.2375    0.0000 N   0  0  0  0  0  0  0  0  0  0  0  0
    0.7145   -0.4125    0.0000 C   0  0  0  0  0  0  0  0  0  0  0  0
    1.4289    0.0000    0.0000 N   0  0  0  0  0  0  0  0  0  0  0  0
    2.1434   -0.4125    0.0000 C   0  0  0  0  0  0  0  0  0  0  0  0
    2.8579    0.0000    0.0000 C   0  0  0  0  0  0  0  0  0  0  0  0
    3.5724   -0.4125    0.0000 C   0  0  0  0  0  0  0  0  0  0  0  0
    3.5724   -1.2375    0.0000 C   0  0  0  0  0  0  0  0  0  0  0  0
    2.8579   -1.6500    0.0000 C   0  0  0  0  0  0  0  0  0  0  0  0
    2.1434   -1.2375    0.0000 C   0  0  0  0  0  0  0  0  0  0  0  0
    0.0000    0.0000    0.0000 N   0  0  0  0  0  0  0  0  0  0  0  0
   -0.7145   -0.4125    0.0000 C   0  0  0  0  0  0  0  0  0  0  0  0
   -1.4289    0.0000    0.0000 C   0  0  0  0  0  0  0  0  0  0  0  0
   -1.4289    0.8250    0.0000 C   0  0  0  0  0  0  0  0  0  0  0  0
   -0.7145    1.2375    0.0000 C   0  0  0  0  0  0  0  0  0  0  0  0
    0.0000    0.8250    0.0000 C   0  0  0  0  0  0  0  0  0  0  0  0
    2.1434   -3.7125    0.0000 C   0  0  0  0  0  0  0  0  0  0  0  0
    2.8109   -4.1974    0.0000 O   0  0  0  0  0  0  0  0  0  0  0  0
    2.5559   -4.9820    0.0000 C   0  0  0  0  0  0  0  0  0  0  0  0
    1.7309   -4.9820    0.0000 C   0  0  0  0  0  0  0  0  0  0  0  0
    1.4760   -4.1974    0.0000 C   0  0  0  0  0  0  0  0  0  0  0  0
  1  2  1  0  0  0  0
  2  3  1  0  0  0  0
  3  4  1  0  0  0  0
  4  5  2  0  0  0  0
  5  6  1  0  0  0  0
  6  7  2  0  0  0  0
  7  8  1  0  0  0  0
  8  9  2  0  0  0  0
  9 10  1  0  0  0  0
 10 11  2  0  0  0  0
 11 12  1  0  0  0  0
  3 12  2  0  0  0  0
  7 12  1  0  0  0  0
  5 13  1  0  0  0  0
 13 14  1  0  0  0  0
 14 15  1  0  0  0  0
 15 16  1  0  0  0  0
 16 17  1  0  0  0  0
 17 18  1  0  0  0  0
 13 18  1  0  0  0  0
  1 19  1  0  0  0  0
 19 20  1  0  0  0  0
 20 21  1  0  0  0  0
 21 22  2  0  0  0  0
 22 23  1  0  0  0  0
 19 23  2  0  0  0  0
M  END
> <COMPOUND_ID>
MMV676401

$$$$

  Mrv0541 04191616472D          

 15 16  0  0  0  0            999 V2000
    2.1434   -0.4125    0.0000 N   0  0  0  0  0  0  0  0  0  0  0  0
    2.1434   -1.2375    0.0000 C   0  0  0  0  0  0  0  0  0  0  0  0
    2.8579   -1.6500    0.0000 C   0  0  0  0  0  0  0  0  0  0  0  0
    2.8579   -2.4750    0.0000 C   0  0  0  0  0  0  0  0  0  0  0  0
    2.1434   -2.8875    0.0000 C   0  0  0  0  0  0  0  0  0  0  0  0
    1.4289   -2.4750    0.0000 N   0  0  0  0  0  0  0  0  0  0  0  0
    1.4289   -1.6500    0.0000 C   0  0  0  0  0  0  0  0  0  0  0  0
    0.7145   -1.2375    0.0000 N   0  0  0  0  0  0  0  0  0  0  0  0
    0.7145   -0.4125    0.0000 C   0  0  0  0  0  0  0  0  0  0  0  0
    0.0000    0.0000    0.0000 C   0  0  0  0  0  0  0  0  0  0  0  0
    0.0000    0.8250    0.0000 C   0  0  0  0  0  0  0  0  0  0  0  0
    0.7145    1.2375    0.0000 C   0  0  0  0  0  0  0  0  0  0  0  0
    0.7145    2.0625    0.0000 Cl  0  0  0  0  0  0  0  0  0  0  0  0
    1.4289    0.8250    0.0000 C   0  0  0  0  0  0  0  0  0  0  0  0
    1.4289    0.0000    0.0000 C   0  0  0  0  0  0  0  0  0  0  0  0
  1  2  1  0  0  0  0
  2  3  2  0  0  0  0
  3  4  1  0  0  0  0
  4  5  2  0  0  0  0
  5  6  1  0  0  0  0
  6  7  2  0  0  0  0
  2  7  1  0  0  0  0
  7  8  1  0  0  0  0
  8  9  1  0  0  0  0
  9 10  2  0  0  0  0
 10 11  1  0  0  0  0
 11 12  2  0  0  0  0
 12 13  1  0  0  0  0
 12 14  1  0  0  0  0
 14 15  2  0  0  0  0
  9 15  1  0  0  0  0
M  END
> <COMPOUND_ID>
MMV676524

$$$$

  Mrv0541 04191616472D          

 30 33  0  0  0  0            999 V2000
   -2.5559   11.0270    0.0000 C   0  0  0  0  0  0  0  0  0  0  0  0
   -1.8414   10.6145    0.0000 C   0  0  0  0  0  0  0  0  0  0  0  0
   -1.1270   11.0270    0.0000 C   0  0  0  0  0  0  0  0  0  0  0  0
   -0.4125   10.6145    0.0000 C   0  0  0  0  0  0  0  0  0  0  0  0
    0.3020   11.0270    0.0000 C   0  0  0  0  0  0  0  0  0  0  0  0
    1.0164   10.6145    0.0000 C   0  0  0  0  0  0  0  0  0  0  0  0
    1.0164    9.7895    0.0000 C   0  0  0  0  0  0  0  0  0  0  0  0
    0.3020    9.3770    0.0000 C   0  0  0  0  0  0  0  0  0  0  0  0
   -0.4125    9.7895    0.0000 C   0  0  0  0  0  0  0  0  0  0  0  0
    1.7309    9.3770    0.0000 S   0  0  0  0  0  0  0  0  0  0  0  0
    1.3184    8.6625    0.0000 O   0  0  0  0  0  0  0  0  0  0  0  0
    2.1434   10.0914    0.0000 O   0  0  0  0  0  0  0  0  0  0  0  0
    2.4454    8.9645    0.0000 N   0  0  0  0  0  0  0  0  0  0  0  0
    2.4454    8.1395    0.0000 C   0  0  0  0  0  0  0  0  0  0  0  0
    3.1599    7.7270    0.0000 C   0  0  0  0  0  0  0  0  0  0  0  0
    3.1599    6.9020    0.0000 C   0  0  0  0  0  0  0  0  0  0  0  0
    2.4454    6.4895    0.0000 C   0  0  0  0  0  0  0  0  0  0  0  0
    2.4454    5.6645    0.0000 C   0  0  0  0  0  0  0  0  0  0  0  0
    1.7309    5.2520    0.0000 N   0  0  0  0  0  0  0  0  0  0  0  0
    1.7309    4.4270    0.0000 C   0  0  0  0  0  0  0  0  0  0  0  0
    1.0164    4.0145    0.0000 C   0  0  0  0  0  0  0  0  0  0  0  0
    0.3020    4.4270    0.0000 N   0  0  0  0  0  0  0  0  0  0  0  0
   -0.4125    4.0145    0.0000 C   0  0  0  0  0  0  0  0  0  0  0  0
   -0.4125    3.1895    0.0000 C   0  0  0  0  0  0  0  0  0  0  0  0
    0.0000    2.4750    0.0000 C   0  0  0  0  0  0  0  0  0  0  0  0
   -0.8250    2.4750    0.0000 C   0  0  0  0  0  0  0  0  0  0  0  0
    0.3020    5.2520    0.0000 C   0  0  0  0  0  0  0  0  0  0  0  0
    1.0164    5.6645    0.0000 C   0  0  0  0  0  0  0  0  0  0  0  0
    1.7309    6.9020    0.0000 C   0  0  0  0  0  0  0  0  0  0  0  0
    1.7309    7.7270    0.0000 C   0  0  0  0  0  0  0  0  0  0  0  0
  1  2  1  0  0  0  0
  2  3  1  0  0  0  0
  3  4  1  0  0  0  0
  4  5  2  0  0  0  0
  5  6  1  0  0  0  0
  6  7  2  0  0  0  0
  7  8  1  0  0  0  0
  8  9  2  0  0  0  0
  4  9  1  0  0  0  0
  7 10  1  0  0  0  0
 10 11  2  0  0  0  0
 10 12  2  0  0  0  0
 10 13  1  0  0  0  0
 13 14  1  0  0  0  0
 14 15  2  0  0  0  0
 15 16  1  0  0  0  0
 16 17  2  0  0  0  0
 17 18  1  0  0  0  0
 18 19  1  0  0  0  0
 19 20  1  0  0  0  0
 20 21  1  0  0  0  0
 21 22  1  0  0  0  0
 22 23  1  0  0  0  0
 23 24  1  0  0  0  0
 24 25  1  0  0  0  0
 25 26  1  0  0  0  0
 24 26  1  0  0  0  0
 22 27  1  0  0  0  0
 27 28  1  0  0  0  0
 19 28  1  0  0  0  0
 17 29  1  0  0  0  0
 29 30  2  0  0  0  0
 14 30  1  0  0  0  0
M  END
> <COMPOUND_ID>
MMV688125

$$$$

  Mrv0541 04191616472D          

 33 36  0  0  0  0            999 V2000
   -2.1434   -8.6625    0.0000 C   0  0  0  0  0  0  0  0  0  0  0  0
   -2.1434   -9.4875    0.0000 N   0  0  0  0  0  0  0  0  0  0  0  0
   -1.4760   -9.9724    0.0000 C   0  0  0  0  0  0  0  0  0  0  0  0
   -1.7309  -10.7570    0.0000 C   0  0  0  0  0  0  0  0  0  0  0  0
   -2.5559  -10.7570    0.0000 N   0  0  0  0  0  0  0  0  0  0  0  0
   -2.8109   -9.9724    0.0000 C   0  0  0  0  0  0  0  0  0  0  0  0
   -3.5955   -9.7175    0.0000 C   0  0  0  0  0  0  0  0  0  0  0  0
   -3.7670   -8.9105    0.0000 N   0  0  0  0  0  0  0  0  0  0  0  0
   -4.5516   -8.6556    0.0000 C   0  0  0  0  0  0  0  0  0  0  0  0
   -4.7231   -7.8486    0.0000 C   0  0  0  0  0  0  0  0  0  0  0  0
   -5.5078   -7.5937    0.0000 S   0  0  0  0  0  0  0  0  0  0  0  0
   -5.2528   -6.8090    0.0000 O   0  0  0  0  0  0  0  0  0  0  0  0
   -5.7627   -8.3783    0.0000 O   0  0  0  0  0  0  0  0  0  0  0  0
   -6.2924   -7.3387    0.0000 C   0  0  0  0  0  0  0  0  0  0  0  0
   -6.9055   -7.8908    0.0000 C   0  0  0  0  0  0  0  0  0  0  0  0
   -7.6901   -7.6358    0.0000 C   0  0  0  0  0  0  0  0  0  0  0  0
   -7.8616   -6.8288    0.0000 C   0  0  0  0  0  0  0  0  0  0  0  0
   -7.2485   -6.2768    0.0000 C   0  0  0  0  0  0  0  0  0  0  0  0
   -7.4201   -5.4698    0.0000 N   0  0  0  0  0  0  0  0  0  0  0  0
   -8.2047   -5.2149    0.0000 C   0  0  0  0  0  0  0  0  0  0  0  0
   -8.8178   -5.7669    0.0000 C   0  0  0  0  0  0  0  0  0  0  0  0
   -9.6024   -5.5120    0.0000 C   0  0  0  0  0  0  0  0  0  0  0  0
   -9.7739   -4.7050    0.0000 C   0  0  0  0  0  0  0  0  0  0  0  0
   -9.1608   -4.1530    0.0000 C   0  0  0  0  0  0  0  0  0  0  0  0
   -8.3762   -4.4079    0.0000 N   0  0  0  0  0  0  0  0  0  0  0  0
  -10.5586   -4.4501    0.0000 C   0  0  0  0  0  0  0  0  0  0  0  0
  -11.1716   -5.0021    0.0000 C   0  0  0  0  0  0  0  0  0  0  0  0
  -11.9563   -4.7472    0.0000 C   0  0  0  0  0  0  0  0  0  0  0  0
  -12.1278   -3.9402    0.0000 C   0  0  0  0  0  0  0  0  0  0  0  0
  -11.5147   -3.3882    0.0000 C   0  0  0  0  0  0  0  0  0  0  0  0
  -11.6862   -2.5812    0.0000 F   0  0  0  0  0  0  0  0  0  0  0  0
  -10.7301   -3.6431    0.0000 C   0  0  0  0  0  0  0  0  0  0  0  0
   -6.4639   -6.5318    0.0000 C   0  0  0  0  0  0  0  0  0  0  0  0
  1  2  1  0  0  0  0
  2  3  1  0  0  0  0
  3  4  2  0  0  0  0
  4  5  1  0  0  0  0
  5  6  2  0  0  0  0
  2  6  1  0  0  0  0
  6  7  1  0  0  0  0
  7  8  1  0  0  0  0
  8  9  1  0  0  0  0
  9 10  1  0  0  0  0
 10 11  1  0  0  0  0
 11 12  2  0  0  0  0
 11 13  2  0  0  0  0
 11 14  1  0  0  0  0
 14 15  2  0  0  0  0
 15 16  1  0  0  0  0
 16 17  2  0  0  0  0
 17 18  1  0  0  0  0
 18 19  1  0  0  0  0
 19 20  1  0  0  0  0
 20 21  2  0  0  0  0
 21 22  1  0  0  0  0
 22 23  2  0  0  0  0
 23 24  1  0  0  0  0
 24 25  2  0  0  0  0
 20 25  1  0  0  0  0
 23 26  1  0  0  0  0
 26 27  2  0  0  0  0
 27 28  1  0  0  0  0
 28 29  2  0  0  0  0
 29 30  1  0  0  0  0
 30 31  1  0  0  0  0
 30 32  2  0  0  0  0
 26 32  1  0  0  0  0
 18 33  2  0  0  0  0
 14 33  1  0  0  0  0
M  END
> <COMPOUND_ID>
MMV688466

$$$$

  Mrv0541 04191616472D          

 31 35  0  0  1  0            999 V2000
   12.0393    8.4777    0.0000 C   0  0  0  0  0  0  0  0  0  0  0  0
   11.3248    8.0652    0.0000 C   0  0  2  0  0  0  0  0  0  0  0  0
   11.3248    7.2402    0.0000 C   0  0  0  0  0  0  0  0  0  0  0  0
   10.6104    6.8277    0.0000 N   0  0  0  0  0  0  0  0  0  0  0  0
    9.8959    7.2402    0.0000 C   0  0  0  0  0  0  0  0  0  0  0  0
    9.8959    8.0652    0.0000 C   0  0  0  0  0  0  0  0  0  0  0  0
   10.6104    8.4777    0.0000 N   0  0  0  0  0  0  0  0  0  0  0  0
   10.6104    6.0027    0.0000 C   0  0  0  0  0  0  0  0  0  0  0  0
   11.3248    5.5902    0.0000 N   0  0  0  0  0  0  0  0  0  0  0  0
   11.3248    4.7652    0.0000 C   0  0  0  0  0  0  0  0  0  0  0  0
   10.6104    4.3527    0.0000 C   0  0  0  0  0  0  0  0  0  0  0  0
    9.8959    4.7652    0.0000 C   0  0  0  0  0  0  0  0  0  0  0  0
    9.1814    4.3527    0.0000 O   0  0  0  0  0  0  0  0  0  0  0  0
    9.1814    3.5277    0.0000 C   0  0  0  0  0  0  0  0  0  0  0  0
    9.8959    3.1152    0.0000 C   0  0  0  0  0  0  0  0  0  0  0  0
    9.8959    2.2902    0.0000 C   0  0  0  0  0  0  0  0  0  0  0  0
    9.1814    1.8777    0.0000 C   0  0  0  0  0  0  0  0  0  0  0  0
    8.4669    2.2902    0.0000 C   0  0  0  0  0  0  0  0  0  0  0  0
    8.4669    3.1152    0.0000 C   0  0  0  0  0  0  0  0  0  0  0  0
    9.1814    1.0527    0.0000 N   0  0  0  0  0  0  0  0  0  0  0  0
    9.8489    0.5678    0.0000 C   0  0  0  0  0  0  0  0  0  0  0  0
    9.5939   -0.2169    0.0000 C   0  0  0  0  0  0  0  0  0  0  0  0
    8.7689   -0.2169    0.0000 N   0  0  0  0  0  0  0  0  0  0  0  0
    8.5140    0.5678    0.0000 C   0  0  0  0  0  0  0  0  0  0  0  0
    9.8959    5.5902    0.0000 N   0  0  0  0  0  0  0  0  0  0  0  0
   12.7538    8.0652    0.0000 C   0  0  0  0  0  0  0  0  0  0  0  0
   13.4682    8.4777    0.0000 C   0  0  0  0  0  0  0  0  0  0  0  0
   14.1827    8.0652    0.0000 C   0  0  0  0  0  0  0  0  0  0  0  0
   14.1827    7.2402    0.0000 C   0  0  0  0  0  0  0  0  0  0  0  0
   13.4682    6.8277    0.0000 C   0  0  0  0  0  0  0  0  0  0  0  0
   12.7538    7.2402    0.0000 C   0  0  0  0  0  0  0  0  0  0  0  0
  2  1  1  6  0  0  0
  2  3  1  0  0  0  0
  3  4  1  0  0  0  0
  4  5  1  0  0  0  0
  5  6  1  0  0  0  0
  6  7  1  0  0  0  0
  2  7  1  0  0  0  0
  4  8  1  0  0  0  0
  8  9  2  0  0  0  0
  9 10  1  0  0  0  0
 10 11  2  0  0  0  0
 11 12  1  0  0  0  0
 12 13  1  0  0  0  0
 13 14  1  0  0  0  0
 14 15  2  0  0  0  0
 15 16  1  0  0  0  0
 16 17  2  0  0  0  0
 17 18  1  0  0  0  0
 18 19  2  0  0  0  0
 14 19  1  0  0  0  0
 17 20  1  0  0  0  0
 20 21  1  0  0  0  0
 21 22  2  0  0  0  0
 22 23  1  0  0  0  0
 23 24  2  0  0  0  0
 20 24  1  0  0  0  0
 12 25  2  0  0  0  0
  8 25  1  0  0  0  0
  1 26  1  0  0  0  0
 26 27  2  0  0  0  0
 27 28  1  0  0  0  0
 28 29  2  0  0  0  0
 29 30  1  0  0  0  0
 30 31  2  0  0  0  0
 26 31  1  0  0  0  0
M  END
> <COMPOUND_ID>
MMV687749

$$$$

  Mrv0541 04191616472D          

 30 34  0  0  0  0            999 V2000
   -1.2288    1.7457    0.0000 C   0  0  0  0  0  0  0  0  0  0  0  0
   -2.0492    1.8319    0.0000 N   0  0  0  0  0  0  0  0  0  0  0  0
   -2.3848    2.5856    0.0000 C   0  0  0  0  0  0  0  0  0  0  0  0
   -3.2053    2.6718    0.0000 C   0  0  0  0  0  0  0  0  0  0  0  0
   -3.5408    3.4255    0.0000 C   0  0  0  0  0  0  0  0  0  0  0  0
   -3.0559    4.0929    0.0000 C   0  0  0  0  0  0  0  0  0  0  0  0
   -2.2354    4.0067    0.0000 N   0  0  0  0  0  0  0  0  0  0  0  0
   -1.8999    3.2530    0.0000 C   0  0  0  0  0  0  0  0  0  0  0  0
   -0.8932    0.9920    0.0000 C   0  0  0  0  0  0  0  0  0  0  0  0
   -1.3057    0.2775    0.0000 C   0  0  0  0  0  0  0  0  0  0  0  0
   -0.7537   -0.3356    0.0000 C   0  0  0  0  0  0  0  0  0  0  0  0
    0.0000    0.0000    0.0000 C   0  0  0  0  0  0  0  0  0  0  0  0
   -0.0862    0.8205    0.0000 S   0  0  0  0  0  0  0  0  0  0  0  0
    0.7145   -0.4125    0.0000 C   0  0  0  0  0  0  0  0  0  0  0  0
    1.4289    0.0000    0.0000 C   0  0  0  0  0  0  0  0  0  0  0  0
    2.1434   -0.4125    0.0000 C   0  0  0  0  0  0  0  0  0  0  0  0
    2.8579    0.0000    0.0000 C   0  0  0  0  0  0  0  0  0  0  0  0
    3.5724   -0.4125    0.0000 C   0  0  0  0  0  0  0  0  0  0  0  0
    3.5724   -1.2375    0.0000 N   0  0  0  0  0  0  0  0  0  0  0  0
    2.8579   -1.6500    0.0000 C   0  0  0  0  0  0  0  0  0  0  0  0
    2.1434   -1.2375    0.0000 C   0  0  0  0  0  0  0  0  0  0  0  0
    1.4289   -1.6500    0.0000 C   0  0  0  0  0  0  0  0  0  0  0  0
    0.7145   -1.2375    0.0000 C   0  0  0  0  0  0  0  0  0  0  0  0
    0.0000   -1.6500    0.0000 O   0  0  0  0  0  0  0  0  0  0  0  0
    0.0000   -2.4750    0.0000 C   0  0  0  0  0  0  0  0  0  0  0  0
    0.7145   -2.8875    0.0000 C   0  0  0  0  0  0  0  0  0  0  0  0
    0.7145   -3.7125    0.0000 C   0  0  0  0  0  0  0  0  0  0  0  0
    0.0000   -4.1250    0.0000 N   0  0  0  0  0  0  0  0  0  0  0  0
   -0.7145   -3.7125    0.0000 C   0  0  0  0  0  0  0  0  0  0  0  0
   -0.7145   -2.8875    0.0000 C   0  0  0  0  0  0  0  0  0  0  0  0
  1  2  1  0  0  0  0
  2  3  1  0  0  0  0
  3  4  2  0  0  0  0
  4  5  1  0  0  0  0
  5  6  2  0  0  0  0
  6  7  1  0  0  0  0
  7  8  2  0  0  0  0
  3  8  1  0  0  0  0
  1  9  1  0  0  0  0
  9 10  2  0  0  0  0
 10 11  1  0  0  0  0
 11 12  2  0  0  0  0
 12 13  1  0  0  0  0
  9 13  1  0  0  0  0
 12 14  1  0  0  0  0
 14 15  1  0  0  0  0
 15 16  2  0  0  0  0
 16 17  1  0  0  0  0
 17 18  2  0  0  0  0
 18 19  1  0  0  0  0
 19 20  2  0  0  0  0
 20 21  1  0  0  0  0
 16 21  1  0  0  0  0
 21 22  2  0  0  0  0
 22 23  1  0  0  0  0
 14 23  2  0  0  0  0
 23 24  1  0  0  0  0
 24 25  1  0  0  0  0
 25 26  1  0  0  0  0
 26 27  1  0  0  0  0
 27 28  1  0  0  0  0
 28 29  1  0  0  0  0
 29 30  1  0  0  0  0
 25 30  1  0  0  0  0
M  END
> <COMPOUND_ID>
MMV023969

$$$$

  Mrv0541 04191616472D          

 32 36  0  0  1  0            999 V2000
    6.3235    6.0027    0.0000 C   0  0  0  0  0  0  0  0  0  0  0  0
    6.3235    6.8277    0.0000 C   0  0  0  0  0  0  0  0  0  0  0  0
    5.6091    7.2402    0.0000 C   0  0  0  0  0  0  0  0  0  0  0  0
    5.6091    8.0652    0.0000 N   0  0  0  0  0  0  0  0  0  0  0  0
    6.3235    8.4777    0.0000 C   0  0  0  0  0  0  0  0  0  0  0  0
    7.0380    8.0652    0.0000 N   0  0  0  0  0  0  0  0  0  0  0  0
    7.0380    7.2402    0.0000 C   0  0  0  0  0  0  0  0  0  0  0  0
    7.7525    6.8277    0.0000 O   0  0  0  0  0  0  0  0  0  0  0  0
    7.7525    6.0027    0.0000 C   0  0  0  0  0  0  0  0  0  0  0  0
    8.4669    5.5902    0.0000 C   0  0  0  0  0  0  0  0  0  0  0  0
    8.4669    4.7652    0.0000 C   0  0  0  0  0  0  0  0  0  0  0  0
    7.7525    4.3527    0.0000 C   0  0  0  0  0  0  0  0  0  0  0  0
    7.0380    4.7652    0.0000 C   0  0  0  0  0  0  0  0  0  0  0  0
    7.0380    5.5902    0.0000 C   0  0  0  0  0  0  0  0  0  0  0  0
    7.7525    3.5277    0.0000 N   0  0  0  0  0  0  0  0  0  0  0  0
    8.4199    3.0428    0.0000 C   0  0  0  0  0  0  0  0  0  0  0  0
    8.1650    2.2581    0.0000 C   0  0  0  0  0  0  0  0  0  0  0  0
    7.3400    2.2581    0.0000 N   0  0  0  0  0  0  0  0  0  0  0  0
    7.0850    3.0428    0.0000 C   0  0  0  0  0  0  0  0  0  0  0  0
    6.3235    9.3027    0.0000 N   0  0  0  0  0  0  0  0  0  0  0  0
    5.6091    9.7152    0.0000 C   0  0  0  0  0  0  0  0  0  0  0  0
    5.6091   10.5402    0.0000 C   0  0  0  0  0  0  0  0  0  0  0  0
    6.3235   10.9527    0.0000 N   0  0  0  0  0  0  0  0  0  0  0  0
    7.0380   10.5402    0.0000 C   0  0  1  0  0  0  0  0  0  0  0  0
    7.7525   10.9527    0.0000 C   0  0  0  0  0  0  0  0  0  0  0  0
    8.4669   10.5402    0.0000 C   0  0  0  0  0  0  0  0  0  0  0  0
    9.1814   10.9527    0.0000 C   0  0  0  0  0  0  0  0  0  0  0  0
    9.8959   10.5402    0.0000 C   0  0  0  0  0  0  0  0  0  0  0  0
    9.8959    9.7152    0.0000 C   0  0  0  0  0  0  0  0  0  0  0  0
    9.1814    9.3027    0.0000 C   0  0  0  0  0  0  0  0  0  0  0  0
    8.4669    9.7152    0.0000 C   0  0  0  0  0  0  0  0  0  0  0  0
    7.0380    9.7152    0.0000 C   0  0  0  0  0  0  0  0  0  0  0  0
  1  2  1  0  0  0  0
  2  3  2  0  0  0  0
  3  4  1  0  0  0  0
  4  5  2  0  0  0  0
  5  6  1  0  0  0  0
  6  7  2  0  0  0  0
  2  7  1  0  0  0  0
  7  8  1  0  0  0  0
  8  9  1  0  0  0  0
  9 10  2  0  0  0  0
 10 11  1  0  0  0  0
 11 12  2  0  0  0  0
 12 13  1  0  0  0  0
 13 14  2  0  0  0  0
  9 14  1  0  0  0  0
 12 15  1  0  0  0  0
 15 16  1  0  0  0  0
 16 17  2  0  0  0  0
 17 18  1  0  0  0  0
 18 19  2  0  0  0  0
 15 19  1  0  0  0  0
  5 20  1  0  0  0  0
 20 21  1  0  0  0  0
 21 22  1  0  0  0  0
 22 23  1  0  0  0  0
 23 24  1  0  0  0  0
 24 25  1  1  0  0  0
 25 26  1  0  0  0  0
 26 27  2  0  0  0  0
 27 28  1  0  0  0  0
 28 29  2  0  0  0  0
 29 30  1  0  0  0  0
 30 31  2  0  0  0  0
 26 31  1  0  0  0  0
 24 32  1  0  0  0  0
 20 32  1  0  0  0  0
M  END
> <COMPOUND_ID>
MMV687765

$$$$

  Mrv0541 04191616472D          

 31 33  0  0  0  0            999 V2000
    3.5724   -2.8875    0.0000 C   0  0  0  0  0  0  0  0  0  0  0  0
    4.2868   -3.3000    0.0000 C   0  0  0  0  0  0  0  0  0  0  0  0
    4.2868   -4.1250    0.0000 C   0  0  0  0  0  0  0  0  0  0  0  0
    5.0013   -4.5375    0.0000 C   0  0  0  0  0  0  0  0  0  0  0  0
    5.0013   -5.3625    0.0000 C   0  0  0  0  0  0  0  0  0  0  0  0
    4.2868   -5.7750    0.0000 C   0  0  0  0  0  0  0  0  0  0  0  0
    3.5724   -5.3625    0.0000 C   0  0  0  0  0  0  0  0  0  0  0  0
    3.5724   -4.5375    0.0000 C   0  0  0  0  0  0  0  0  0  0  0  0
    4.2868   -6.6000    0.0000 S   0  0  0  0  0  0  0  0  0  0  0  0
    3.4618   -6.6000    0.0000 O   0  0  0  0  0  0  0  0  0  0  0  0
    5.1118   -6.6000    0.0000 O   0  0  0  0  0  0  0  0  0  0  0  0
    4.2868   -7.4250    0.0000 N   0  0  0  0  0  0  0  0  0  0  0  0
    3.5724   -7.8375    0.0000 C   0  0  0  0  0  0  0  0  0  0  0  0
    3.5724   -8.6625    0.0000 C   0  0  0  0  0  0  0  0  0  0  0  0
    2.8579   -9.0750    0.0000 C   0  0  0  0  0  0  0  0  0  0  0  0
    2.8579   -9.9000    0.0000 C   0  0  0  0  0  0  0  0  0  0  0  0
    2.1434  -10.3125    0.0000 N   0  0  0  0  0  0  0  0  0  0  0  0
    2.1434  -11.1375    0.0000 C   0  0  0  0  0  0  0  0  0  0  0  0
    1.4289  -11.5500    0.0000 C   0  0  0  0  0  0  0  0  0  0  0  0
    0.7145  -11.1375    0.0000 N   0  0  0  0  0  0  0  0  0  0  0  0
   -0.0000  -11.5500    0.0000 C   0  0  0  0  0  0  0  0  0  0  0  0
   -0.0000  -12.3750    0.0000 C   0  0  0  0  0  0  0  0  0  0  0  0
   -0.7145  -12.7875    0.0000 C   0  0  0  0  0  0  0  0  0  0  0  0
   -0.7145  -13.6125    0.0000 C   0  0  0  0  0  0  0  0  0  0  0  0
   -1.4289  -12.3750    0.0000 C   0  0  0  0  0  0  0  0  0  0  0  0
    0.7145  -10.3125    0.0000 C   0  0  0  0  0  0  0  0  0  0  0  0
    1.4289   -9.9000    0.0000 C   0  0  0  0  0  0  0  0  0  0  0  0
    2.1434   -8.6625    0.0000 C   0  0  0  0  0  0  0  0  0  0  0  0
    2.1434   -7.8375    0.0000 C   0  0  0  0  0  0  0  0  0  0  0  0
    2.8579   -7.4250    0.0000 C   0  0  0  0  0  0  0  0  0  0  0  0
    2.8579   -6.6000    0.0000 C   0  0  0  0  0  0  0  0  0  0  0  0
  1  2  1  0  0  0  0
  2  3  1  0  0  0  0
  3  4  2  0  0  0  0
  4  5  1  0  0  0  0
  5  6  2  0  0  0  0
  6  7  1  0  0  0  0
  7  8  2  0  0  0  0
  3  8  1  0  0  0  0
  6  9  1  0  0  0  0
  9 10  2  0  0  0  0
  9 11  2  0  0  0  0
  9 12  1  0  0  0  0
 12 13  1  0  0  0  0
 13 14  2  0  0  0  0
 14 15  1  0  0  0  0
 15 16  1  0  0  0  0
 16 17  1  0  0  0  0
 17 18  1  0  0  0  0
 18 19  1  0  0  0  0
 19 20  1  0  0  0  0
 20 21  1  0  0  0  0
 21 22  1  0  0  0  0
 22 23  1  0  0  0  0
 23 24  1  0  0  0  0
 23 25  1  0  0  0  0
 20 26  1  0  0  0  0
 26 27  1  0  0  0  0
 17 27  1  0  0  0  0
 15 28  2  0  0  0  0
 28 29  1  0  0  0  0
 29 30  2  0  0  0  0
 13 30  1  0  0  0  0
 30 31  1  0  0  0  0
M  END
> <COMPOUND_ID>
MMV688124

$$$$

  Mrv0541 04191616472D          

 25 28  0  0  0  0            999 V2000
    5.6606   -0.0209    0.0000 O   0  0  0  0  0  0  0  0  0  0  0  0
    4.9462    0.3916    0.0000 C   0  0  0  0  0  0  0  0  0  0  0  0
    4.2317   -0.0209    0.0000 N   0  0  0  0  0  0  0  0  0  0  0  0
    4.2317   -0.8459    0.0000 C   0  0  0  0  0  0  0  0  0  0  0  0
    4.8991   -1.3308    0.0000 N   0  0  0  0  0  0  0  0  0  0  0  0
    4.6442   -2.1155    0.0000 C   0  0  0  0  0  0  0  0  0  0  0  0
    3.8192   -2.1155    0.0000 C   0  0  0  0  0  0  0  0  0  0  0  0
    3.5642   -1.3308    0.0000 S   0  0  0  0  0  0  0  0  0  0  0  0
    5.1291   -2.7829    0.0000 C   0  0  0  0  0  0  0  0  0  0  0  0
    5.9496   -2.6967    0.0000 C   0  0  0  0  0  0  0  0  0  0  0  0
    6.4345   -3.3641    0.0000 C   0  0  0  0  0  0  0  0  0  0  0  0
    6.0990   -4.1178    0.0000 C   0  0  0  0  0  0  0  0  0  0  0  0
    5.2785   -4.2040    0.0000 C   0  0  0  0  0  0  0  0  0  0  0  0
    4.7936   -3.5366    0.0000 N   0  0  0  0  0  0  0  0  0  0  0  0
    4.9462    1.2166    0.0000 C   0  0  0  0  0  0  0  0  0  0  0  0
    4.2787    1.7015    0.0000 C   0  0  0  0  0  0  0  0  0  0  0  0
    4.5337    2.4861    0.0000 N   0  0  0  0  0  0  0  0  0  0  0  0
    5.3587    2.4861    0.0000 C   0  0  0  0  0  0  0  0  0  0  0  0
    5.6136    1.7015    0.0000 N   0  0  0  0  0  0  0  0  0  0  0  0
    6.3982    1.4466    0.0000 C   0  0  0  0  0  0  0  0  0  0  0  0
    7.0113    1.9986    0.0000 C   0  0  0  0  0  0  0  0  0  0  0  0
    7.7959    1.7437    0.0000 C   0  0  0  0  0  0  0  0  0  0  0  0
    7.9675    0.9367    0.0000 C   0  0  0  0  0  0  0  0  0  0  0  0
    7.3544    0.3846    0.0000 C   0  0  0  0  0  0  0  0  0  0  0  0
    6.5697    0.6396    0.0000 C   0  0  0  0  0  0  0  0  0  0  0  0
  1  2  2  0  0  0  0
  2  3  1  0  0  0  0
  3  4  1  0  0  0  0
  4  5  2  0  0  0  0
  5  6  1  0  0  0  0
  6  7  2  0  0  0  0
  7  8  1  0  0  0  0
  4  8  1  0  0  0  0
  6  9  1  0  0  0  0
  9 10  2  0  0  0  0
 10 11  1  0  0  0  0
 11 12  2  0  0  0  0
 12 13  1  0  0  0  0
 13 14  2  0  0  0  0
  9 14  1  0  0  0  0
  2 15  1  0  0  0  0
 15 16  2  0  0  0  0
 16 17  1  0  0  0  0
 17 18  2  0  0  0  0
 18 19  1  0  0  0  0
 15 19  1  0  0  0  0
 19 20  1  0  0  0  0
 20 21  2  0  0  0  0
 21 22  1  0  0  0  0
 22 23  2  0  0  0  0
 23 24  1  0  0  0  0
 24 25  2  0  0  0  0
 20 25  1  0  0  0  0
M  END
> <COMPOUND_ID>
MMV676512

$$$$

  Mrv0541 04191616472D          

 17 18  0  0  0  0            999 V2000
    1.3222    5.5902    0.0000 C   0  0  0  0  0  0  0  0  0  0  0  0
    1.3222    4.7652    0.0000 O   0  0  0  0  0  0  0  0  0  0  0  0
    2.0367    4.3527    0.0000 C   0  0  0  0  0  0  0  0  0  0  0  0
    2.7512    4.7652    0.0000 C   0  0  0  0  0  0  0  0  0  0  0  0
    3.4656    4.3527    0.0000 C   0  0  0  0  0  0  0  0  0  0  0  0
    3.4656    3.5277    0.0000 C   0  0  0  0  0  0  0  0  0  0  0  0
    2.7512    3.1152    0.0000 C   0  0  0  0  0  0  0  0  0  0  0  0
    2.0367    3.5277    0.0000 C   0  0  0  0  0  0  0  0  0  0  0  0
    2.7512    2.2902    0.0000 N   0  0  0  0  0  0  0  0  0  0  0  0
    3.4186    1.8053    0.0000 N   0  0  0  0  0  0  0  0  0  0  0  0
    3.1637    1.0206    0.0000 N   0  0  0  0  0  0  0  0  0  0  0  0
    2.3387    1.0206    0.0000 N   0  0  0  0  0  0  0  0  0  0  0  0
    2.0837    1.8053    0.0000 C   0  0  0  0  0  0  0  0  0  0  0  0
    1.2991    2.0602    0.0000 S   0  0  0  0  0  0  0  0  0  0  0  0
    0.5145    2.3151    0.0000 O   0  0  0  0  0  0  0  0  0  0  0  0
    1.5541    2.8448    0.0000 O   0  0  0  0  0  0  0  0  0  0  0  0
    1.0442    1.2756    0.0000 C   0  0  0  0  0  0  0  0  0  0  0  0
  1  2  1  0  0  0  0
  2  3  1  0  0  0  0
  3  4  2  0  0  0  0
  4  5  1  0  0  0  0
  5  6  2  0  0  0  0
  6  7  1  0  0  0  0
  7  8  2  0  0  0  0
  3  8  1  0  0  0  0
  7  9  1  0  0  0  0
  9 10  1  0  0  0  0
 10 11  2  0  0  0  0
 11 12  1  0  0  0  0
 12 13  2  0  0  0  0
  9 13  1  0  0  0  0
 13 14  1  0  0  0  0
 14 15  2  0  0  0  0
 14 16  2  0  0  0  0
 14 17  1  0  0  0  0
M  END
> <COMPOUND_ID>
MMV272144

$$$$

  Mrv0541 04191616472D          

 19 20  0  0  0  0            999 V2000
    1.4289   -0.8250    0.0000 C   0  0  0  0  0  0  0  0  0  0  0  0
    1.4289   -1.6500    0.0000 C   0  0  0  0  0  0  0  0  0  0  0  0
    0.6039   -1.6500    0.0000 C   0  0  0  0  0  0  0  0  0  0  0  0
    2.2539   -1.6500    0.0000 C   0  0  0  0  0  0  0  0  0  0  0  0
    1.4289   -2.4750    0.0000 C   0  0  0  0  0  0  0  0  0  0  0  0
    2.0964   -2.9599    0.0000 C   0  0  0  0  0  0  0  0  0  0  0  0
    1.8414   -3.7445    0.0000 N   0  0  0  0  0  0  0  0  0  0  0  0
    1.0164   -3.7445    0.0000 C   0  0  0  0  0  0  0  0  0  0  0  0
    0.5315   -4.4120    0.0000 N   0  0  0  0  0  0  0  0  0  0  0  0
    0.8671   -5.1657    0.0000 C   0  0  0  0  0  0  0  0  0  0  0  0
    1.6876   -5.2519    0.0000 O   0  0  0  0  0  0  0  0  0  0  0  0
    0.3822   -5.8331    0.0000 C   0  0  0  0  0  0  0  0  0  0  0  0
    0.7177   -6.5868    0.0000 C   0  0  0  0  0  0  0  0  0  0  0  0
    0.2328   -7.2542    0.0000 C   0  0  0  0  0  0  0  0  0  0  0  0
   -0.5877   -7.1680    0.0000 C   0  0  0  0  0  0  0  0  0  0  0  0
   -0.9232   -6.4143    0.0000 C   0  0  0  0  0  0  0  0  0  0  0  0
   -0.4383   -5.7469    0.0000 C   0  0  0  0  0  0  0  0  0  0  0  0
   -0.7739   -4.9932    0.0000 O   0  0  0  0  0  0  0  0  0  0  0  0
    0.7615   -2.9599    0.0000 S   0  0  0  0  0  0  0  0  0  0  0  0
  1  2  1  0  0  0  0
  2  3  1  0  0  0  0
  2  4  1  0  0  0  0
  2  5  1  0  0  0  0
  5  6  2  0  0  0  0
  6  7  1  0  0  0  0
  7  8  2  0  0  0  0
  8  9  1  0  0  0  0
  9 10  1  0  0  0  0
 10 11  2  0  0  0  0
 10 12  1  0  0  0  0
 12 13  2  0  0  0  0
 13 14  1  0  0  0  0
 14 15  2  0  0  0  0
 15 16  1  0  0  0  0
 16 17  2  0  0  0  0
 12 17  1  0  0  0  0
 17 18  1  0  0  0  0
  8 19  1  0  0  0  0
  5 19  1  0  0  0  0
M  END
> <COMPOUND_ID>
MMV495543

$$$$

  Mrv0541 04191616472D          

 22 25  0  0  0  0            999 V2000
    2.4454   -1.4118    0.0000 C   0  0  0  0  0  0  0  0  0  0  0  0
    1.7309   -1.8243    0.0000 C   0  0  0  0  0  0  0  0  0  0  0  0
    1.0164   -1.4118    0.0000 C   0  0  0  0  0  0  0  0  0  0  0  0
    1.0164   -0.5868    0.0000 C   0  0  0  0  0  0  0  0  0  0  0  0
    1.7309   -0.1743    0.0000 C   0  0  0  0  0  0  0  0  0  0  0  0
    2.4454   -0.5868    0.0000 C   0  0  0  0  0  0  0  0  0  0  0  0
    0.3020   -0.1743    0.0000 N   0  0  0  0  0  0  0  0  0  0  0  0
   -0.4125   -0.5868    0.0000 C   0  0  0  0  0  0  0  0  0  0  0  0
   -0.4125   -1.4118    0.0000 C   0  0  0  0  0  0  0  0  0  0  0  0
   -1.1270   -1.8243    0.0000 C   0  0  0  0  0  0  0  0  0  0  0  0
   -1.8414   -1.4118    0.0000 N   0  0  0  0  0  0  0  0  0  0  0  0
   -1.8414   -0.5868    0.0000 C   0  0  0  0  0  0  0  0  0  0  0  0
   -1.1270   -0.1743    0.0000 N   0  0  0  0  0  0  0  0  0  0  0  0
   -2.5559   -0.1743    0.0000 C   0  0  0  0  0  0  0  0  0  0  0  0
   -3.2704   -0.5868    0.0000 C   0  0  0  0  0  0  0  0  0  0  0  0
   -3.9849   -0.1743    0.0000 C   0  0  0  0  0  0  0  0  0  0  0  0
   -3.9849    0.6507    0.0000 C   0  0  0  0  0  0  0  0  0  0  0  0
   -3.2704    1.0632    0.0000 C   0  0  0  0  0  0  0  0  0  0  0  0
   -2.5559    0.6507    0.0000 N   0  0  0  0  0  0  0  0  0  0  0  0
   -1.1270   -2.6493    0.0000 C   0  0  0  0  0  0  0  0  0  0  0  0
   -0.7145   -3.3638    0.0000 C   0  0  0  0  0  0  0  0  0  0  0  0
   -1.5395   -3.3638    0.0000 C   0  0  0  0  0  0  0  0  0  0  0  0
  1  2  1  0  0  0  0
  2  3  1  0  0  0  0
  3  4  1  0  0  0  0
  4  5  1  0  0  0  0
  5  6  1  0  0  0  0
  1  6  1  0  0  0  0
  4  7  1  0  0  0  0
  7  8  1  0  0  0  0
  8  9  2  0  0  0  0
  9 10  1  0  0  0  0
 10 11  2  0  0  0  0
 11 12  1  0  0  0  0
 12 13  2  0  0  0  0
  8 13  1  0  0  0  0
 12 14  1  0  0  0  0
 14 15  2  0  0  0  0
 15 16  1  0  0  0  0
 16 17  2  0  0  0  0
 17 18  1  0  0  0  0
 18 19  2  0  0  0  0
 14 19  1  0  0  0  0
 10 20  1  0  0  0  0
 20 21  1  0  0  0  0
 21 22  1  0  0  0  0
 20 22  1  0  0  0  0
M  END
> <COMPOUND_ID>
MMV021013

$$$$

  Mrv0541 04191616472D          

 18 20  0  0  0  0            999 V2000
    0.7913   -3.5590    0.0000 C   0  0  0  0  0  0  0  0  0  0  0  0
    1.5983   -3.3875    0.0000 C   0  0  0  0  0  0  0  0  0  0  0  0
    2.1503   -4.0006    0.0000 O   0  0  0  0  0  0  0  0  0  0  0  0
    1.8532   -2.6029    0.0000 N   0  0  0  0  0  0  0  0  0  0  0  0
    1.3683   -1.9354    0.0000 C   0  0  0  0  0  0  0  0  0  0  0  0
    1.8532   -1.2680    0.0000 C   0  0  0  0  0  0  0  0  0  0  0  0
    2.6378   -1.5229    0.0000 C   0  0  0  0  0  0  0  0  0  0  0  0
    3.3523   -1.1104    0.0000 C   0  0  0  0  0  0  0  0  0  0  0  0
    4.0668   -1.5229    0.0000 C   0  0  0  0  0  0  0  0  0  0  0  0
    4.7812   -1.1104    0.0000 N   0  0  0  0  0  0  0  0  0  0  0  0
    5.4957   -1.5229    0.0000 C   0  0  0  0  0  0  0  0  0  0  0  0
    6.2102   -1.1104    0.0000 C   0  0  0  0  0  0  0  0  0  0  0  0
    5.4957   -2.3479    0.0000 C   0  0  0  0  0  0  0  0  0  0  0  0
    4.7812   -2.7604    0.0000 C   0  0  0  0  0  0  0  0  0  0  0  0
    4.7812   -3.5854    0.0000 C   0  0  0  0  0  0  0  0  0  0  0  0
    4.0668   -2.3479    0.0000 C   0  0  0  0  0  0  0  0  0  0  0  0
    3.3523   -2.7604    0.0000 C   0  0  0  0  0  0  0  0  0  0  0  0
    2.6378   -2.3479    0.0000 C   0  0  0  0  0  0  0  0  0  0  0  0
  1  2  1  0  0  0  0
  2  3  2  0  0  0  0
  2  4  1  0  0  0  0
  4  5  1  0  0  0  0
  5  6  1  0  0  0  0
  6  7  1  0  0  0  0
  7  8  1  0  0  0  0
  8  9  2  0  0  0  0
  9 10  1  0  0  0  0
 10 11  2  0  0  0  0
 11 12  1  0  0  0  0
 11 13  1  0  0  0  0
 13 14  2  0  0  0  0
 14 15  1  0  0  0  0
 14 16  1  0  0  0  0
  9 16  1  0  0  0  0
 16 17  2  0  0  0  0
 17 18  1  0  0  0  0
  4 18  1  0  0  0  0
  7 18  2  0  0  0  0
M  END
> <COMPOUND_ID>
MMV054312

$$$$

  Mrv0541 04191616472D          

 28 31  0  0  0  0            999 V2000
   -0.8121    4.5071    0.0000 C   0  0  0  0  0  0  0  0  0  0  0  0
   -0.5572    3.7225    0.0000 O   0  0  0  0  0  0  0  0  0  0  0  0
    0.2498    3.5510    0.0000 C   0  0  0  0  0  0  0  0  0  0  0  0
    0.8018    4.1641    0.0000 C   0  0  0  0  0  0  0  0  0  0  0  0
    1.6088    3.9926    0.0000 C   0  0  0  0  0  0  0  0  0  0  0  0
    1.8637    3.2079    0.0000 C   0  0  0  0  0  0  0  0  0  0  0  0
    1.3117    2.5948    0.0000 C   0  0  0  0  0  0  0  0  0  0  0  0
    1.5666    1.8102    0.0000 N   0  0  0  0  0  0  0  0  0  0  0  0
    1.0146    1.1971    0.0000 C   0  0  0  0  0  0  0  0  0  0  0  0
    0.2076    1.3686    0.0000 O   0  0  0  0  0  0  0  0  0  0  0  0
    1.2695    0.4125    0.0000 C   0  0  0  0  0  0  0  0  0  0  0  0
    2.0542    0.1576    0.0000 C   0  0  0  0  0  0  0  0  0  0  0  0
    2.8388    0.4125    0.0000 C   0  0  0  0  0  0  0  0  0  0  0  0
    3.3237   -0.2549    0.0000 C   0  0  0  0  0  0  0  0  0  0  0  0
    2.8388   -0.9224    0.0000 C   0  0  0  0  0  0  0  0  0  0  0  0
    2.0542   -0.6674    0.0000 C   0  0  0  0  0  0  0  0  0  0  0  0
    1.2695   -0.9224    0.0000 S   0  0  0  0  0  0  0  0  0  0  0  0
    0.7846   -0.2549    0.0000 C   0  0  0  0  0  0  0  0  0  0  0  0
   -0.0404   -0.2549    0.0000 N   0  0  0  0  0  0  0  0  0  0  0  0
   -0.4529   -0.9694    0.0000 C   0  0  0  0  0  0  0  0  0  0  0  0
   -1.2779   -0.9694    0.0000 O   0  0  0  0  0  0  0  0  0  0  0  0
   -0.0404   -1.6839    0.0000 C   0  0  0  0  0  0  0  0  0  0  0  0
    0.7846   -1.6839    0.0000 C   0  0  0  0  0  0  0  0  0  0  0  0
    1.1971   -2.3984    0.0000 C   0  0  0  0  0  0  0  0  0  0  0  0
    0.7846   -3.1128    0.0000 C   0  0  0  0  0  0  0  0  0  0  0  0
   -0.0404   -3.1128    0.0000 N   0  0  0  0  0  0  0  0  0  0  0  0
   -0.4529   -2.3984    0.0000 C   0  0  0  0  0  0  0  0  0  0  0  0
    0.5047    2.7664    0.0000 C   0  0  0  0  0  0  0  0  0  0  0  0
  1  2  1  0  0  0  0
  2  3  1  0  0  0  0
  3  4  2  0  0  0  0
  4  5  1  0  0  0  0
  5  6  2  0  0  0  0
  6  7  1  0  0  0  0
  7  8  1  0  0  0  0
  8  9  1  0  0  0  0
  9 10  2  0  0  0  0
  9 11  1  0  0  0  0
 11 12  1  0  0  0  0
 12 13  1  0  0  0  0
 13 14  1  0  0  0  0
 14 15  1  0  0  0  0
 15 16  1  0  0  0  0
 12 16  2  0  0  0  0
 16 17  1  0  0  0  0
 17 18  1  0  0  0  0
 11 18  2  0  0  0  0
 18 19  1  0  0  0  0
 19 20  1  0  0  0  0
 20 21  2  0  0  0  0
 20 22  1  0  0  0  0
 22 23  2  0  0  0  0
 23 24  1  0  0  0  0
 24 25  2  0  0  0  0
 25 26  1  0  0  0  0
 26 27  2  0  0  0  0
 22 27  1  0  0  0  0
  7 28  2  0  0  0  0
  3 28  1  0  0  0  0
M  END
> <COMPOUND_ID>
MMV228911

$$$$

  Mrv0541 04191616472D          

 16 17  0  0  0  0            999 V2000
   -1.4289   -0.8250    0.0000 C   0  0  0  0  0  0  0  0  0  0  0  0
   -0.7145   -0.4125    0.0000 S   0  0  0  0  0  0  0  0  0  0  0  0
   -0.3020   -1.1270    0.0000 O   0  0  0  0  0  0  0  0  0  0  0  0
   -1.1270    0.3020    0.0000 O   0  0  0  0  0  0  0  0  0  0  0  0
    0.0000    0.0000    0.0000 C   0  0  0  0  0  0  0  0  0  0  0  0
    0.7145   -0.4125    0.0000 C   0  0  0  0  0  0  0  0  0  0  0  0
    1.4289    0.0000    0.0000 N   0  0  0  0  0  0  0  0  0  0  0  0
    2.1434   -0.4125    0.0000 C   0  0  0  0  0  0  0  0  0  0  0  0
    2.8579    0.0000    0.0000 C   0  0  0  0  0  0  0  0  0  0  0  0
    3.5724   -0.4125    0.0000 C   0  0  0  0  0  0  0  0  0  0  0  0
    3.5724   -1.2375    0.0000 C   0  0  0  0  0  0  0  0  0  0  0  0
    2.8579   -1.6500    0.0000 C   0  0  0  0  0  0  0  0  0  0  0  0
    2.1434   -1.2375    0.0000 C   0  0  0  0  0  0  0  0  0  0  0  0
    1.4289   -1.6500    0.0000 O   0  0  0  0  0  0  0  0  0  0  0  0
    0.7145   -1.2375    0.0000 C   0  0  0  0  0  0  0  0  0  0  0  0
    0.0000   -1.6500    0.0000 O   0  0  0  0  0  0  0  0  0  0  0  0
  1  2  1  0  0  0  0
  2  3  2  0  0  0  0
  2  4  2  0  0  0  0
  2  5  1  0  0  0  0
  5  6  1  0  0  0  0
  6  7  2  0  0  0  0
  7  8  1  0  0  0  0
  8  9  2  0  0  0  0
  9 10  1  0  0  0  0
 10 11  2  0  0  0  0
 11 12  1  0  0  0  0
 12 13  2  0  0  0  0
  8 13  1  0  0  0  0
 13 14  1  0  0  0  0
 14 15  1  0  0  0  0
  6 15  1  0  0  0  0
 15 16  2  0  0  0  0
M  END
> <COMPOUND_ID>
MMV553002

$$$$

  Mrv0541 04191616472D          

 23 25  0  0  0  0            999 V2000
    1.3222    1.5884    0.0000 C   0  0  0  0  0  0  0  0  0  0  0  0
    1.3222    0.7634    0.0000 O   0  0  0  0  0  0  0  0  0  0  0  0
    2.0367    0.3509    0.0000 C   0  0  0  0  0  0  0  0  0  0  0  0
    2.7512    0.7634    0.0000 C   0  0  0  0  0  0  0  0  0  0  0  0
    3.4656    0.3509    0.0000 C   0  0  0  0  0  0  0  0  0  0  0  0
    3.4656   -0.4741    0.0000 C   0  0  0  0  0  0  0  0  0  0  0  0
    2.7512   -0.8866    0.0000 C   0  0  0  0  0  0  0  0  0  0  0  0
    2.0367   -0.4741    0.0000 C   0  0  0  0  0  0  0  0  0  0  0  0
    2.7512   -1.7116    0.0000 N   0  0  0  0  0  0  0  0  0  0  0  0
    3.4186   -2.1965    0.0000 N   0  0  0  0  0  0  0  0  0  0  0  0
    3.1637   -2.9812    0.0000 N   0  0  0  0  0  0  0  0  0  0  0  0
    2.3387   -2.9812    0.0000 N   0  0  0  0  0  0  0  0  0  0  0  0
    2.0837   -2.1965    0.0000 C   0  0  0  0  0  0  0  0  0  0  0  0
    1.2991   -1.9416    0.0000 S   0  0  0  0  0  0  0  0  0  0  0  0
    1.5541   -1.1570    0.0000 O   0  0  0  0  0  0  0  0  0  0  0  0
    1.0442   -2.7262    0.0000 O   0  0  0  0  0  0  0  0  0  0  0  0
    0.5145   -1.6867    0.0000 C   0  0  0  0  0  0  0  0  0  0  0  0
    0.3430   -0.8797    0.0000 C   0  0  0  0  0  0  0  0  0  0  0  0
   -0.4417   -0.6247    0.0000 C   0  0  0  0  0  0  0  0  0  0  0  0
   -0.6132    0.1822    0.0000 C   0  0  0  0  0  0  0  0  0  0  0  0
   -0.0001    0.7343    0.0000 C   0  0  0  0  0  0  0  0  0  0  0  0
    0.7845    0.4793    0.0000 C   0  0  0  0  0  0  0  0  0  0  0  0
    0.9561   -0.3276    0.0000 C   0  0  0  0  0  0  0  0  0  0  0  0
  1  2  1  0  0  0  0
  2  3  1  0  0  0  0
  3  4  2  0  0  0  0
  4  5  1  0  0  0  0
  5  6  2  0  0  0  0
  6  7  1  0  0  0  0
  7  8  2  0  0  0  0
  3  8  1  0  0  0  0
  7  9  1  0  0  0  0
  9 10  1  0  0  0  0
 10 11  2  0  0  0  0
 11 12  1  0  0  0  0
 12 13  2  0  0  0  0
  9 13  1  0  0  0  0
 13 14  1  0  0  0  0
 14 15  2  0  0  0  0
 14 16  2  0  0  0  0
 14 17  1  0  0  0  0
 17 18  1  0  0  0  0
 18 19  2  0  0  0  0
 19 20  1  0  0  0  0
 20 21  2  0  0  0  0
 21 22  1  0  0  0  0
 22 23  2  0  0  0  0
 18 23  1  0  0  0  0
M  END
> <COMPOUND_ID>
MMV676388

$$$$

  Mrv0541 04191616472D          

 25 27  0  0  1  0            999 V2000
   -0.5837   -1.4124    0.0000 O   0  5  0  0  0  0  0  0  0  0  0  0
   -0.1712   -0.6979    0.0000 N   0  3  0  0  0  0  0  0  0  0  0  0
   -0.5837    0.0165    0.0000 O   0  0  0  0  0  0  0  0  0  0  0  0
    0.6538   -0.6979    0.0000 C   0  0  0  0  0  0  0  0  0  0  0  0
    1.1387   -0.0305    0.0000 C   0  0  0  0  0  0  0  0  0  0  0  0
    1.9233   -0.2854    0.0000 N   0  0  0  0  0  0  0  0  0  0  0  0
    2.6378    0.1271    0.0000 C   0  0  0  0  0  0  0  0  0  0  0  0
    3.3523   -0.2854    0.0000 C   0  0  1  0  0  0  0  0  0  0  0  0
    3.3523   -1.1104    0.0000 C   0  0  0  0  0  0  0  0  0  0  0  0
    2.6378   -1.5229    0.0000 O   0  0  0  0  0  0  0  0  0  0  0  0
    1.9233   -1.1104    0.0000 C   0  0  0  0  0  0  0  0  0  0  0  0
    1.1387   -1.3654    0.0000 N   0  0  0  0  0  0  0  0  0  0  0  0
    4.0668    0.1271    0.0000 O   0  0  0  0  0  0  0  0  0  0  0  0
    4.0668    0.9521    0.0000 C   0  0  0  0  0  0  0  0  0  0  0  0
    4.7812    1.3646    0.0000 C   0  0  0  0  0  0  0  0  0  0  0  0
    4.7812    2.1896    0.0000 C   0  0  0  0  0  0  0  0  0  0  0  0
    5.4957    2.6021    0.0000 C   0  0  0  0  0  0  0  0  0  0  0  0
    6.2102    2.1896    0.0000 C   0  0  0  0  0  0  0  0  0  0  0  0
    6.9246    2.6021    0.0000 O   0  0  0  0  0  0  0  0  0  0  0  0
    6.9246    3.4271    0.0000 C   0  0  0  0  0  0  0  0  0  0  0  0
    6.9246    4.2521    0.0000 F   0  0  0  0  0  0  0  0  0  0  0  0
    7.7496    3.4271    0.0000 F   0  0  0  0  0  0  0  0  0  0  0  0
    6.0996    3.4271    0.0000 F   0  0  0  0  0  0  0  0  0  0  0  0
    6.2102    1.3646    0.0000 C   0  0  0  0  0  0  0  0  0  0  0  0
    5.4957    0.9521    0.0000 C   0  0  0  0  0  0  0  0  0  0  0  0
  1  2  1  0  0  0  0
  2  3  2  0  0  0  0
  2  4  1  0  0  0  0
  4  5  2  0  0  0  0
  5  6  1  0  0  0  0
  6  7  1  0  0  0  0
  7  8  1  0  0  0  0
  8  9  1  0  0  0  0
  9 10  1  0  0  0  0
 10 11  1  0  0  0  0
  6 11  1  0  0  0  0
 11 12  2  0  0  0  0
  4 12  1  0  0  0  0
  8 13  1  6  0  0  0
 13 14  1  0  0  0  0
 14 15  1  0  0  0  0
 15 16  2  0  0  0  0
 16 17  1  0  0  0  0
 17 18  2  0  0  0  0
 18 19  1  0  0  0  0
 19 20  1  0  0  0  0
 20 21  1  0  0  0  0
 20 22  1  0  0  0  0
 20 23  1  0  0  0  0
 18 24  1  0  0  0  0
 24 25  2  0  0  0  0
 15 25  1  0  0  0  0
M  CHG  2   1  -1   2   1
M  END
> <COMPOUND_ID>
MMV688755

$$$$

  Mrv0541 04191616472D          

 24 26  0  0  1  0            999 V2000
   -0.7145   -1.2375    0.0000 C   0  0  0  0  0  0  0  0  0  0  0  0
    0.0000   -1.6500    0.0000 C   0  0  0  0  0  0  0  0  0  0  0  0
    0.7145   -1.2375    0.0000 O   0  0  0  0  0  0  0  0  0  0  0  0
    0.0000   -2.4750    0.0000 N   0  0  0  0  0  0  0  0  0  0  0  0
    0.7145   -2.8875    0.0000 C   0  0  0  0  0  0  0  0  0  0  0  0
    0.7145   -3.7125    0.0000 C   0  0  1  0  0  0  0  0  0  0  0  0
    1.3819   -4.1974    0.0000 C   0  0  0  0  0  0  0  0  0  0  0  0
    1.1270   -4.9820    0.0000 N   0  0  0  0  0  0  0  0  0  0  0  0
    0.3020   -4.9820    0.0000 C   0  0  0  0  0  0  0  0  0  0  0  0
   -0.1830   -5.6495    0.0000 O   0  0  0  0  0  0  0  0  0  0  0  0
    0.0470   -4.1974    0.0000 O   0  0  0  0  0  0  0  0  0  0  0  0
    1.6119   -5.6495    0.0000 C   0  0  0  0  0  0  0  0  0  0  0  0
    2.4324   -5.5632    0.0000 C   0  0  0  0  0  0  0  0  0  0  0  0
    2.9173   -6.2307    0.0000 C   0  0  0  0  0  0  0  0  0  0  0  0
    2.5817   -6.9844    0.0000 C   0  0  0  0  0  0  0  0  0  0  0  0
    3.0667   -7.6518    0.0000 N   0  0  0  0  0  0  0  0  0  0  0  0
    3.8871   -7.5656    0.0000 C   0  0  0  0  0  0  0  0  0  0  0  0
    4.3721   -8.2330    0.0000 C   0  0  0  0  0  0  0  0  0  0  0  0
    4.0365   -8.9867    0.0000 S   0  0  0  0  0  0  0  0  0  0  0  0
    3.2160   -9.0729    0.0000 C   0  0  0  0  0  0  0  0  0  0  0  0
    2.7311   -8.4055    0.0000 C   0  0  0  0  0  0  0  0  0  0  0  0
    1.7613   -7.0706    0.0000 C   0  0  0  0  0  0  0  0  0  0  0  0
    1.4257   -7.8243    0.0000 F   0  0  0  0  0  0  0  0  0  0  0  0
    1.2763   -6.4032    0.0000 C   0  0  0  0  0  0  0  0  0  0  0  0
  1  2  1  0  0  0  0
  2  3  2  0  0  0  0
  2  4  1  0  0  0  0
  4  5  1  0  0  0  0
  6  5  1  1  0  0  0
  6  7  1  0  0  0  0
  7  8  1  0  0  0  0
  8  9  1  0  0  0  0
  9 10  2  0  0  0  0
  9 11  1  0  0  0  0
  6 11  1  0  0  0  0
  8 12  1  0  0  0  0
 12 13  2  0  0  0  0
 13 14  1  0  0  0  0
 14 15  2  0  0  0  0
 15 16  1  0  0  0  0
 16 17  1  0  0  0  0
 17 18  1  0  0  0  0
 18 19  1  0  0  0  0
 19 20  1  0  0  0  0
 20 21  1  0  0  0  0
 16 21  1  0  0  0  0
 15 22  1  0  0  0  0
 22 23  1  0  0  0  0
 22 24  2  0  0  0  0
 12 24  1  0  0  0  0
M  END
> <COMPOUND_ID>
MMV688756

$$$$

  Mrv0541 04191616472D          

 30 33  0  0  0  0            999 V2000
   -0.7145   -1.2375    0.0000 C   0  0  0  0  0  0  0  0  0  0  0  0
    0.0000   -1.6500    0.0000 O   0  0  0  0  0  0  0  0  0  0  0  0
    0.7145   -1.2375    0.0000 C   0  0  0  0  0  0  0  0  0  0  0  0
    0.7145   -0.4125    0.0000 C   0  0  0  0  0  0  0  0  0  0  0  0
    1.4289    0.0000    0.0000 C   0  0  0  0  0  0  0  0  0  0  0  0
    2.1434   -0.4125    0.0000 C   0  0  0  0  0  0  0  0  0  0  0  0
    2.8579    0.0000    0.0000 N   0  0  0  0  0  0  0  0  0  0  0  0
    3.5724   -0.4125    0.0000 C   0  0  0  0  0  0  0  0  0  0  0  0
    3.5724   -1.2375    0.0000 C   0  0  0  0  0  0  0  0  0  0  0  0
    2.8579   -1.6500    0.0000 C   0  0  0  0  0  0  0  0  0  0  0  0
    2.8579   -2.4750    0.0000 N   0  0  0  0  0  0  0  0  0  0  0  0
    3.5724   -2.8875    0.0000 C   0  0  0  0  0  0  0  0  0  0  0  0
    3.5724   -3.7125    0.0000 O   0  0  0  0  0  0  0  0  0  0  0  0
    4.2868   -2.4750    0.0000 C   0  0  0  0  0  0  0  0  0  0  0  0
    4.2868   -1.6500    0.0000 C   0  0  0  0  0  0  0  0  0  0  0  0
    5.0013   -1.2375    0.0000 C   0  0  0  0  0  0  0  0  0  0  0  0
    5.7158   -1.6500    0.0000 N   0  0  0  0  0  0  0  0  0  0  0  0
    6.4302   -1.2375    0.0000 C   0  0  0  0  0  0  0  0  0  0  0  0
    6.4302   -0.4125    0.0000 C   0  0  0  0  0  0  0  0  0  0  0  0
    7.1447    0.0000    0.0000 C   0  0  0  0  0  0  0  0  0  0  0  0
    7.1447    0.8250    0.0000 C   0  0  0  0  0  0  0  0  0  0  0  0
    7.8592    1.2375    0.0000 C   0  0  0  0  0  0  0  0  0  0  0  0
    8.5737    0.8250    0.0000 C   0  0  0  0  0  0  0  0  0  0  0  0
    9.2881    1.2375    0.0000 Cl  0  0  0  0  0  0  0  0  0  0  0  0
    8.5737    0.0000    0.0000 C   0  0  0  0  0  0  0  0  0  0  0  0
    7.8592   -0.4125    0.0000 C   0  0  0  0  0  0  0  0  0  0  0  0
    5.7158   -2.4750    0.0000 C   0  0  0  0  0  0  0  0  0  0  0  0
    5.0013   -2.8875    0.0000 C   0  0  0  0  0  0  0  0  0  0  0  0
    2.1434   -1.2375    0.0000 C   0  0  0  0  0  0  0  0  0  0  0  0
    1.4289   -1.6500    0.0000 N   0  0  0  0  0  0  0  0  0  0  0  0
  1  2  1  0  0  0  0
  2  3  1  0  0  0  0
  3  4  2  0  0  0  0
  4  5  1  0  0  0  0
  5  6  2  0  0  0  0
  6  7  1  0  0  0  0
  7  8  2  0  0  0  0
  8  9  1  0  0  0  0
  9 10  2  0  0  0  0
 10 11  1  0  0  0  0
 11 12  1  0  0  0  0
 12 13  2  0  0  0  0
 12 14  1  0  0  0  0
 14 15  1  0  0  0  0
 15 16  1  0  0  0  0
 16 17  1  0  0  0  0
 17 18  1  0  0  0  0
 18 19  1  0  0  0  0
 19 20  1  0  0  0  0
 20 21  2  0  0  0  0
 21 22  1  0  0  0  0
 22 23  2  0  0  0  0
 23 24  1  0  0  0  0
 23 25  1  0  0  0  0
 25 26  2  0  0  0  0
 20 26  1  0  0  0  0
 17 27  1  0  0  0  0
 27 28  1  0  0  0  0
 14 28  1  0  0  0  0
 10 29  1  0  0  0  0
  6 29  1  0  0  0  0
 29 30  2  0  0  0  0
  3 30  1  0  0  0  0
M  END
> <COMPOUND_ID>
MMV688844

$$$$

  Mrv0541 04191616472D          

 31 34  0  0  1  0            999 V2000
    1.9520   -2.1730    0.0000 O   0  0  0  0  0  0  0  0  0  0  0  0
    1.5395   -2.8875    0.0000 C   0  0  0  0  0  0  0  0  0  0  0  0
    0.7145   -2.8875    0.0000 N   0  0  0  0  0  0  0  0  0  0  0  0
    0.3020   -2.1730    0.0000 C   0  0  0  0  0  0  0  0  0  0  0  0
    0.7145   -1.4586    0.0000 C   0  0  0  0  0  0  0  0  0  0  0  0
    0.3020   -0.7441    0.0000 C   0  0  0  0  0  0  0  0  0  0  0  0
   -0.5230   -0.7441    0.0000 C   0  0  0  0  0  0  0  0  0  0  0  0
   -0.9355   -1.4586    0.0000 C   0  0  0  0  0  0  0  0  0  0  0  0
   -0.5230   -2.1730    0.0000 C   0  0  0  0  0  0  0  0  0  0  0  0
   -0.9355   -2.8875    0.0000 N   0  0  0  0  0  0  0  0  0  0  0  0
   -0.5230   -3.6020    0.0000 C   0  0  0  0  0  0  0  0  0  0  0  0
   -0.9355   -4.3164    0.0000 C   0  0  0  0  0  0  0  0  0  0  0  0
   -1.7605   -4.3164    0.0000 O   0  0  0  0  0  0  0  0  0  0  0  0
   -2.1730   -3.6020    0.0000 C   0  0  0  0  0  0  0  0  0  0  0  0
   -1.7605   -2.8875    0.0000 C   0  0  0  0  0  0  0  0  0  0  0  0
    1.9520   -3.6020    0.0000 C   0  0  1  0  0  0  0  0  0  0  0  0
    1.5395   -4.3164    0.0000 C   0  0  0  0  0  0  0  0  0  0  0  0
    1.9520   -5.0309    0.0000 C   0  0  0  0  0  0  0  0  0  0  0  0
    2.7770   -5.0309    0.0000 C   0  0  0  0  0  0  0  0  0  0  0  0
    3.1895   -5.7454    0.0000 C   0  0  0  0  0  0  0  0  0  0  0  0
    2.7770   -6.4599    0.0000 C   0  0  0  0  0  0  0  0  0  0  0  0
    1.9520   -6.4599    0.0000 C   0  0  0  0  0  0  0  0  0  0  0  0
    1.5395   -5.7454    0.0000 C   0  0  0  0  0  0  0  0  0  0  0  0
    2.7770   -3.6020    0.0000 N   0  0  0  0  0  0  0  0  0  0  0  0
    3.1895   -2.8875    0.0000 C   0  0  0  0  0  0  0  0  0  0  0  0
    2.7770   -2.1730    0.0000 O   0  0  0  0  0  0  0  0  0  0  0  0
    4.0145   -2.8875    0.0000 C   0  0  0  0  0  0  0  0  0  0  0  0
    4.4994   -2.2201    0.0000 C   0  0  0  0  0  0  0  0  0  0  0  0
    5.2840   -2.4750    0.0000 C   0  0  0  0  0  0  0  0  0  0  0  0
    5.2840   -3.3000    0.0000 C   0  0  0  0  0  0  0  0  0  0  0  0
    4.4994   -3.5549    0.0000 S   0  0  0  0  0  0  0  0  0  0  0  0
  1  2  2  0  0  0  0
  2  3  1  0  0  0  0
  3  4  1  0  0  0  0
  4  5  2  0  0  0  0
  5  6  1  0  0  0  0
  6  7  2  0  0  0  0
  7  8  1  0  0  0  0
  8  9  2  0  0  0  0
  4  9  1  0  0  0  0
  9 10  1  0  0  0  0
 10 11  1  0  0  0  0
 11 12  1  0  0  0  0
 12 13  1  0  0  0  0
 13 14  1  0  0  0  0
 14 15  1  0  0  0  0
 10 15  1  0  0  0  0
  2 16  1  0  0  0  0
 16 17  1  0  0  0  0
 17 18  1  0  0  0  0
 18 19  2  0  0  0  0
 19 20  1  0  0  0  0
 20 21  2  0  0  0  0
 21 22  1  0  0  0  0
 22 23  2  0  0  0  0
 18 23  1  0  0  0  0
 16 24  1  6  0  0  0
 24 25  1  0  0  0  0
 25 26  2  0  0  0  0
 25 27  1  0  0  0  0
 27 28  2  0  0  0  0
 28 29  1  0  0  0  0
 29 30  2  0  0  0  0
 30 31  1  0  0  0  0
 27 31  1  0  0  0  0
M  END
> <COMPOUND_ID>
MMV688845

$$$$

  Mrv0541 04191616472D          

 26 28  0  0  0  0            999 V2000
    3.9303   -1.1969    0.0000 C   0  0  0  0  0  0  0  0  0  0  0  0
    3.9303   -2.0219    0.0000 C   0  0  0  0  0  0  0  0  0  0  0  0
    4.6448   -2.4344    0.0000 C   0  0  0  0  0  0  0  0  0  0  0  0
    4.6448   -3.2594    0.0000 C   0  0  0  0  0  0  0  0  0  0  0  0
    3.9303   -3.6719    0.0000 C   0  0  0  0  0  0  0  0  0  0  0  0
    3.2158   -3.2594    0.0000 C   0  0  0  0  0  0  0  0  0  0  0  0
    3.2158   -2.4344    0.0000 C   0  0  0  0  0  0  0  0  0  0  0  0
    2.5014   -2.0219    0.0000 C   0  0  0  0  0  0  0  0  0  0  0  0
    2.5014   -1.1969    0.0000 N   0  0  0  0  0  0  0  0  0  0  0  0
    1.7869   -0.7844    0.0000 C   0  0  0  0  0  0  0  0  0  0  0  0
    1.7869    0.0406    0.0000 C   0  0  0  0  0  0  0  0  0  0  0  0
    2.5014    0.4531    0.0000 C   0  0  0  0  0  0  0  0  0  0  0  0
    1.9711    1.0850    0.0000 O   0  0  0  0  0  0  0  0  0  0  0  0
    3.2158    0.0406    0.0000 C   0  0  0  0  0  0  0  0  0  0  0  0
    3.2158   -0.7844    0.0000 C   0  0  0  0  0  0  0  0  0  0  0  0
    3.0317    1.0850    0.0000 C   0  0  0  0  0  0  0  0  0  0  0  0
    2.7495    1.8603    0.0000 C   0  0  0  0  0  0  0  0  0  0  0  0
    3.2798    2.4923    0.0000 C   0  0  0  0  0  0  0  0  0  0  0  0
    4.0923    2.3490    0.0000 C   0  0  0  0  0  0  0  0  0  0  0  0
    4.6226    2.9810    0.0000 Cl  0  0  0  0  0  0  0  0  0  0  0  0
    4.3744    1.5738    0.0000 C   0  0  0  0  0  0  0  0  0  0  0  0
    3.8441    0.9418    0.0000 C   0  0  0  0  0  0  0  0  0  0  0  0
    5.1869    1.4305    0.0000 C   0  0  0  0  0  0  0  0  0  0  0  0
    5.9994    1.2873    0.0000 F   0  0  0  0  0  0  0  0  0  0  0  0
    5.0436    0.6180    0.0000 F   0  0  0  0  0  0  0  0  0  0  0  0
    5.3302    2.2430    0.0000 F   0  0  0  0  0  0  0  0  0  0  0  0
  1  2  1  0  0  0  0
  2  3  2  0  0  0  0
  3  4  1  0  0  0  0
  4  5  2  0  0  0  0
  5  6  1  0  0  0  0
  6  7  2  0  0  0  0
  2  7  1  0  0  0  0
  7  8  1  0  0  0  0
  8  9  1  0  0  0  0
  9 10  1  0  0  0  0
 10 11  1  0  0  0  0
 11 12  1  0  0  0  0
 12 13  1  0  0  0  0
 12 14  1  0  0  0  0
 14 15  1  0  0  0  0
  9 15  1  0  0  0  0
 12 16  1  0  0  0  0
 16 17  2  0  0  0  0
 17 18  1  0  0  0  0
 18 19  2  0  0  0  0
 19 20  1  0  0  0  0
 19 21  1  0  0  0  0
 21 22  2  0  0  0  0
 16 22  1  0  0  0  0
 21 23  1  0  0  0  0
 23 24  1  0  0  0  0
 23 25  1  0  0  0  0
 23 26  1  0  0  0  0
M  END
> <COMPOUND_ID>
MMV688846

$$$$

  Mrv0541 04191616472D          

 26 29  0  0  0  0            999 V2000
   -1.4289   -1.6500    0.0000 C   0  0  0  0  0  0  0  0  0  0  0  0
   -1.4289   -2.4750    0.0000 N   0  0  0  0  0  0  0  0  0  0  0  0
   -0.7145   -2.8875    0.0000 C   0  0  0  0  0  0  0  0  0  0  0  0
   -0.7145   -3.7125    0.0000 C   0  0  0  0  0  0  0  0  0  0  0  0
   -1.4289   -4.1250    0.0000 N   0  0  0  0  0  0  0  0  0  0  0  0
   -2.1434   -3.7125    0.0000 C   0  0  0  0  0  0  0  0  0  0  0  0
   -2.1434   -2.8875    0.0000 C   0  0  0  0  0  0  0  0  0  0  0  0
   -1.4289   -4.9500    0.0000 C   0  0  0  0  0  0  0  0  0  0  0  0
   -0.7145   -5.3625    0.0000 C   0  0  0  0  0  0  0  0  0  0  0  0
   -0.7145   -6.1875    0.0000 C   0  0  0  0  0  0  0  0  0  0  0  0
   -1.4289   -6.6000    0.0000 N   0  0  0  0  0  0  0  0  0  0  0  0
   -2.1434   -6.1875    0.0000 C   0  0  0  0  0  0  0  0  0  0  0  0
   -2.1434   -5.3625    0.0000 N   0  0  0  0  0  0  0  0  0  0  0  0
   -2.8579   -6.6000    0.0000 C   0  0  0  0  0  0  0  0  0  0  0  0
   -2.8579   -7.4250    0.0000 C   0  0  0  0  0  0  0  0  0  0  0  0
   -3.5724   -7.8375    0.0000 C   0  0  0  0  0  0  0  0  0  0  0  0
   -4.2868   -7.4250    0.0000 N   0  0  0  0  0  0  0  0  0  0  0  0
   -4.2868   -6.6000    0.0000 C   0  0  0  0  0  0  0  0  0  0  0  0
   -3.5724   -6.1875    0.0000 C   0  0  0  0  0  0  0  0  0  0  0  0
   -0.0000   -6.6000    0.0000 C   0  0  0  0  0  0  0  0  0  0  0  0
    0.7145   -6.1875    0.0000 C   0  0  0  0  0  0  0  0  0  0  0  0
    1.4289   -6.6000    0.0000 C   0  0  0  0  0  0  0  0  0  0  0  0
    1.4289   -7.4250    0.0000 C   0  0  0  0  0  0  0  0  0  0  0  0
    2.1434   -7.8375    0.0000 F   0  0  0  0  0  0  0  0  0  0  0  0
    0.7145   -7.8375    0.0000 C   0  0  0  0  0  0  0  0  0  0  0  0
   -0.0000   -7.4250    0.0000 C   0  0  0  0  0  0  0  0  0  0  0  0
  1  2  1  0  0  0  0
  2  3  1  0  0  0  0
  3  4  1  0  0  0  0
  4  5  1  0  0  0  0
  5  6  1  0  0  0  0
  6  7  1  0  0  0  0
  2  7  1  0  0  0  0
  5  8  1  0  0  0  0
  8  9  2  0  0  0  0
  9 10  1  0  0  0  0
 10 11  2  0  0  0  0
 11 12  1  0  0  0  0
 12 13  2  0  0  0  0
  8 13  1  0  0  0  0
 12 14  1  0  0  0  0
 14 15  2  0  0  0  0
 15 16  1  0  0  0  0
 16 17  2  0  0  0  0
 17 18  1  0  0  0  0
 18 19  2  0  0  0  0
 14 19  1  0  0  0  0
 10 20  1  0  0  0  0
 20 21  2  0  0  0  0
 21 22  1  0  0  0  0
 22 23  2  0  0  0  0
 23 24  1  0  0  0  0
 23 25  1  0  0  0  0
 25 26  2  0  0  0  0
 20 26  1  0  0  0  0
M  END
> <COMPOUND_ID>
MMV688888

$$$$

  Mrv0541 04191616472D          

 25 28  0  0  0  0            999 V2000
   -0.2934    4.9500    0.0000 Cl  0  0  0  0  0  0  0  0  0  0  0  0
    0.4210    4.5375    0.0000 C   0  0  0  0  0  0  0  0  0  0  0  0
    1.1355    4.9500    0.0000 C   0  0  0  0  0  0  0  0  0  0  0  0
    1.8500    4.5375    0.0000 C   0  0  0  0  0  0  0  0  0  0  0  0
    1.8500    3.7125    0.0000 C   0  0  0  0  0  0  0  0  0  0  0  0
    2.5645    3.3000    0.0000 C   0  0  0  0  0  0  0  0  0  0  0  0
    2.5645    2.4750    0.0000 C   0  0  0  0  0  0  0  0  0  0  0  0
    3.2789    2.0625    0.0000 N   0  0  0  0  0  0  0  0  0  0  0  0
    3.2789    1.2375    0.0000 C   0  0  0  0  0  0  0  0  0  0  0  0
    3.9934    0.8250    0.0000 C   0  0  0  0  0  0  0  0  0  0  0  0
    3.9934    0.0000    0.0000 C   0  0  0  0  0  0  0  0  0  0  0  0
    3.2789   -0.4125    0.0000 N   0  0  0  0  0  0  0  0  0  0  0  0
    2.5645    0.0000    0.0000 C   0  0  0  0  0  0  0  0  0  0  0  0
    1.7798   -0.2549    0.0000 N   0  0  0  0  0  0  0  0  0  0  0  0
    1.2949    0.4125    0.0000 C   0  0  0  0  0  0  0  0  0  0  0  0
    1.7798    1.0799    0.0000 N   0  0  0  0  0  0  0  0  0  0  0  0
    2.5645    0.8250    0.0000 N   0  0  0  0  0  0  0  0  0  0  0  0
    4.7079   -0.4125    0.0000 C   0  0  0  0  0  0  0  0  0  0  0  0
    5.4223   -0.0000    0.0000 C   0  0  0  0  0  0  0  0  0  0  0  0
    6.1368   -0.4125    0.0000 C   0  0  0  0  0  0  0  0  0  0  0  0
    6.1368   -1.2375    0.0000 C   0  0  0  0  0  0  0  0  0  0  0  0
    5.4223   -1.6500    0.0000 C   0  0  0  0  0  0  0  0  0  0  0  0
    4.7079   -1.2375    0.0000 C   0  0  0  0  0  0  0  0  0  0  0  0
    1.1355    3.3000    0.0000 C   0  0  0  0  0  0  0  0  0  0  0  0
    0.4210    3.7125    0.0000 C   0  0  0  0  0  0  0  0  0  0  0  0
  1  2  1  0  0  0  0
  2  3  2  0  0  0  0
  3  4  1  0  0  0  0
  4  5  2  0  0  0  0
  5  6  1  0  0  0  0
  6  7  1  0  0  0  0
  7  8  1  0  0  0  0
  8  9  1  0  0  0  0
  9 10  2  0  0  0  0
 10 11  1  0  0  0  0
 11 12  2  0  0  0  0
 12 13  1  0  0  0  0
 13 14  2  0  0  0  0
 14 15  1  0  0  0  0
 15 16  2  0  0  0  0
 16 17  1  0  0  0  0
  9 17  1  0  0  0  0
 13 17  1  0  0  0  0
 11 18  1  0  0  0  0
 18 19  2  0  0  0  0
 19 20  1  0  0  0  0
 20 21  2  0  0  0  0
 21 22  1  0  0  0  0
 22 23  2  0  0  0  0
 18 23  1  0  0  0  0
  5 24  1  0  0  0  0
 24 25  2  0  0  0  0
  2 25  1  0  0  0  0
M  END
> <COMPOUND_ID>
MMV688889

$$$$

  Mrv0541 04191616472D          

 27 29  0  0  0  0            999 V2000
    0.7145   -2.8875    0.0000 C   0  0  0  0  0  0  0  0  0  0  0  0
    1.4289   -2.4750    0.0000 O   0  0  0  0  0  0  0  0  0  0  0  0
    1.4289   -1.6500    0.0000 C   0  0  0  0  0  0  0  0  0  0  0  0
    0.7145   -1.2375    0.0000 C   0  0  0  0  0  0  0  0  0  0  0  0
    0.7145   -0.4125    0.0000 C   0  0  0  0  0  0  0  0  0  0  0  0
    0.0000    0.0000    0.0000 Br  0  0  0  0  0  0  0  0  0  0  0  0
    1.4289    0.0000    0.0000 C   0  0  0  0  0  0  0  0  0  0  0  0
    2.1434   -0.4125    0.0000 C   0  0  0  0  0  0  0  0  0  0  0  0
    2.8579    0.0000    0.0000 C   0  0  0  0  0  0  0  0  0  0  0  0
    3.5724   -0.4125    0.0000 C   0  0  0  0  0  0  0  0  0  0  0  0
    4.2868   -0.0000    0.0000 C   0  0  0  0  0  0  0  0  0  0  0  0
    4.2868    0.8250    0.0000 O   0  0  0  0  0  0  0  0  0  0  0  0
    5.0013   -0.4125    0.0000 N   0  0  0  0  0  0  0  0  0  0  0  0
    5.7158   -0.0000    0.0000 C   0  0  0  0  0  0  0  0  0  0  0  0
    5.7158    0.8250    0.0000 C   0  0  0  0  0  0  0  0  0  0  0  0
    6.4302    1.2375    0.0000 C   0  0  0  0  0  0  0  0  0  0  0  0
    7.1447    0.8250    0.0000 C   0  0  0  0  0  0  0  0  0  0  0  0
    7.1447   -0.0000    0.0000 C   0  0  0  0  0  0  0  0  0  0  0  0
    6.4302   -0.4125    0.0000 C   0  0  0  0  0  0  0  0  0  0  0  0
    7.8592   -0.4125    0.0000 C   0  0  0  0  0  0  0  0  0  0  0  0
    8.5737   -0.8250    0.0000 F   0  0  0  0  0  0  0  0  0  0  0  0
    7.4467   -1.1270    0.0000 F   0  0  0  0  0  0  0  0  0  0  0  0
    8.2717    0.3020    0.0000 F   0  0  0  0  0  0  0  0  0  0  0  0
    3.5724   -1.2375    0.0000 C   0  0  0  0  0  0  0  0  0  0  0  0
    4.2868   -1.6500    0.0000 O   0  0  0  0  0  0  0  0  0  0  0  0
    2.8579   -1.6500    0.0000 O   0  0  0  0  0  0  0  0  0  0  0  0
    2.1434   -1.2375    0.0000 C   0  0  0  0  0  0  0  0  0  0  0  0
  1  2  1  0  0  0  0
  2  3  1  0  0  0  0
  3  4  2  0  0  0  0
  4  5  1  0  0  0  0
  5  6  1  0  0  0  0
  5  7  2  0  0  0  0
  7  8  1  0  0  0  0
  8  9  1  0  0  0  0
  9 10  2  0  0  0  0
 10 11  1  0  0  0  0
 11 12  2  0  0  0  0
 11 13  1  0  0  0  0
 13 14  1  0  0  0  0
 14 15  2  0  0  0  0
 15 16  1  0  0  0  0
 16 17  2  0  0  0  0
 17 18  1  0  0  0  0
 18 19  2  0  0  0  0
 14 19  1  0  0  0  0
 18 20  1  0  0  0  0
 20 21  1  0  0  0  0
 20 22  1  0  0  0  0
 20 23  1  0  0  0  0
 10 24  1  0  0  0  0
 24 25  2  0  0  0  0
 24 26  1  0  0  0  0
 26 27  1  0  0  0  0
  3 27  1  0  0  0  0
  8 27  2  0  0  0  0
M  END
> <COMPOUND_ID>
MMV688891

$$$$

  Mrv0541 04191616472D          

 26 29  0  0  0  0            999 V2000
   10.0694   -0.4807    0.0000 Cl  0  0  0  0  0  0  0  0  0  0  0  0
    9.3550   -0.8932    0.0000 C   0  0  0  0  0  0  0  0  0  0  0  0
    9.3550   -1.7182    0.0000 C   0  0  0  0  0  0  0  0  0  0  0  0
    8.6405   -2.1307    0.0000 C   0  0  0  0  0  0  0  0  0  0  0  0
    7.9260   -1.7182    0.0000 C   0  0  0  0  0  0  0  0  0  0  0  0
    7.9260   -0.8932    0.0000 C   0  0  0  0  0  0  0  0  0  0  0  0
    7.3129   -0.3412    0.0000 S   0  0  0  0  0  0  0  0  0  0  0  0
    7.6485    0.4125    0.0000 C   0  0  0  0  0  0  0  0  0  0  0  0
    8.4690    0.3263    0.0000 N   0  0  0  0  0  0  0  0  0  0  0  0
    8.6405   -0.4807    0.0000 C   0  0  0  0  0  0  0  0  0  0  0  0
    7.2360    1.1270    0.0000 N   0  0  0  0  0  0  0  0  0  0  0  0
    6.4110    1.1270    0.0000 C   0  0  0  0  0  0  0  0  0  0  0  0
    5.9985    1.8414    0.0000 C   0  0  0  0  0  0  0  0  0  0  0  0
    5.1735    1.8414    0.0000 C   0  0  0  0  0  0  0  0  0  0  0  0
    4.7610    2.5559    0.0000 N   0  0  0  0  0  0  0  0  0  0  0  0
    3.9405    2.6421    0.0000 C   0  0  0  0  0  0  0  0  0  0  0  0
    3.7690    3.4491    0.0000 C   0  0  0  0  0  0  0  0  0  0  0  0
    4.4834    3.8616    0.0000 N   0  0  0  0  0  0  0  0  0  0  0  0
    5.0965    3.3096    0.0000 C   0  0  0  0  0  0  0  0  0  0  0  0
    7.6485    1.8414    0.0000 C   0  0  0  0  0  0  0  0  0  0  0  0
    7.2360    2.5559    0.0000 O   0  0  0  0  0  0  0  0  0  0  0  0
    8.4735    1.8414    0.0000 C   0  0  0  0  0  0  0  0  0  0  0  0
    8.9584    2.5089    0.0000 O   0  0  0  0  0  0  0  0  0  0  0  0
    9.7430    2.2539    0.0000 C   0  0  0  0  0  0  0  0  0  0  0  0
    9.7430    1.4289    0.0000 C   0  0  0  0  0  0  0  0  0  0  0  0
    8.9584    1.1740    0.0000 C   0  0  0  0  0  0  0  0  0  0  0  0
  1  2  1  0  0  0  0
  2  3  1  0  0  0  0
  3  4  2  0  0  0  0
  4  5  1  0  0  0  0
  5  6  2  0  0  0  0
  6  7  1  0  0  0  0
  7  8  1  0  0  0  0
  8  9  2  0  0  0  0
  9 10  1  0  0  0  0
  2 10  2  0  0  0  0
  6 10  1  0  0  0  0
  8 11  1  0  0  0  0
 11 12  1  0  0  0  0
 12 13  1  0  0  0  0
 13 14  1  0  0  0  0
 14 15  1  0  0  0  0
 15 16  1  0  0  0  0
 16 17  2  0  0  0  0
 17 18  1  0  0  0  0
 18 19  2  0  0  0  0
 15 19  1  0  0  0  0
 11 20  1  0  0  0  0
 20 21  2  0  0  0  0
 20 22  1  0  0  0  0
 22 23  1  0  0  0  0
 23 24  1  0  0  0  0
 24 25  2  0  0  0  0
 25 26  1  0  0  0  0
 22 26  2  0  0  0  0
M  END
> <COMPOUND_ID>
MMV688936

$$$$

  Mrv0541 04191616472D          

 23 26  0  0  0  0            999 V2000
    4.0668    2.3479    0.0000 C   0  0  0  0  0  0  0  0  0  0  0  0
    3.3523    1.9354    0.0000 C   0  0  0  0  0  0  0  0  0  0  0  0
    3.3523    1.1104    0.0000 C   0  0  0  0  0  0  0  0  0  0  0  0
    2.6378    0.6979    0.0000 C   0  0  0  0  0  0  0  0  0  0  0  0
    1.9233    1.1104    0.0000 C   0  0  0  0  0  0  0  0  0  0  0  0
    1.1387    0.8555    0.0000 N   0  0  0  0  0  0  0  0  0  0  0  0
    0.6538    1.5229    0.0000 C   0  0  0  0  0  0  0  0  0  0  0  0
   -0.1712    1.5229    0.0000 C   0  0  0  0  0  0  0  0  0  0  0  0
    1.1387    2.1904    0.0000 C   0  0  0  0  0  0  0  0  0  0  0  0
    0.8838    2.9750    0.0000 C   0  0  0  0  0  0  0  0  0  0  0  0
    0.0992    3.2299    0.0000 C   0  0  0  0  0  0  0  0  0  0  0  0
    0.0992    4.0549    0.0000 C   0  0  0  0  0  0  0  0  0  0  0  0
    0.8838    4.3099    0.0000 N   0  0  0  0  0  0  0  0  0  0  0  0
    1.1387    5.0945    0.0000 C   0  0  0  0  0  0  0  0  0  0  0  0
    1.9457    5.2660    0.0000 C   0  0  0  0  0  0  0  0  0  0  0  0
    2.2006    6.0507    0.0000 C   0  0  0  0  0  0  0  0  0  0  0  0
    3.0076    6.2222    0.0000 C   0  0  0  0  0  0  0  0  0  0  0  0
    3.5596    5.6091    0.0000 C   0  0  0  0  0  0  0  0  0  0  0  0
    3.3047    4.8245    0.0000 C   0  0  0  0  0  0  0  0  0  0  0  0
    2.4977    4.6529    0.0000 C   0  0  0  0  0  0  0  0  0  0  0  0
    1.3687    3.6424    0.0000 N   0  0  0  0  0  0  0  0  0  0  0  0
    1.9233    1.9354    0.0000 N   0  0  0  0  0  0  0  0  0  0  0  0
    2.6378    2.3479    0.0000 C   0  0  0  0  0  0  0  0  0  0  0  0
  1  2  1  0  0  0  0
  2  3  1  0  0  0  0
  3  4  2  0  0  0  0
  4  5  1  0  0  0  0
  5  6  2  0  0  0  0
  6  7  1  0  0  0  0
  7  8  1  0  0  0  0
  7  9  2  0  0  0  0
  9 10  1  0  0  0  0
 10 11  1  0  0  0  0
 11 12  2  0  0  0  0
 12 13  1  0  0  0  0
 13 14  1  0  0  0  0
 14 15  1  0  0  0  0
 15 16  2  0  0  0  0
 16 17  1  0  0  0  0
 17 18  2  0  0  0  0
 18 19  1  0  0  0  0
 19 20  2  0  0  0  0
 15 20  1  0  0  0  0
 13 21  1  0  0  0  0
 10 21  2  0  0  0  0
  9 22  1  0  0  0  0
  5 22  1  0  0  0  0
 22 23  1  0  0  0  0
  2 23  2  0  0  0  0
M  END
> <COMPOUND_ID>
MMV688939

$$$$

  Mrv0541 04191616472D          

 26 30  0  0  0  0            999 V2000
    5.2740    4.8485    0.0000 C   0  0  0  0  0  0  0  0  0  0  0  0
    5.9885    4.4360    0.0000 O   0  0  0  0  0  0  0  0  0  0  0  0
    5.9885    3.6110    0.0000 C   0  0  0  0  0  0  0  0  0  0  0  0
    6.7029    3.1985    0.0000 C   0  0  0  0  0  0  0  0  0  0  0  0
    6.7029    2.3735    0.0000 C   0  0  0  0  0  0  0  0  0  0  0  0
    7.4174    1.9610    0.0000 C   0  0  0  0  0  0  0  0  0  0  0  0
    7.4174    1.1360    0.0000 N   0  0  0  0  0  0  0  0  0  0  0  0
    8.1319    0.7235    0.0000 C   0  0  0  0  0  0  0  0  0  0  0  0
    8.1319   -0.1015    0.0000 C   0  0  0  0  0  0  0  0  0  0  0  0
    7.4174   -0.5140    0.0000 C   0  0  0  0  0  0  0  0  0  0  0  0
    6.7029   -0.1015    0.0000 C   0  0  0  0  0  0  0  0  0  0  0  0
    6.7029    0.7235    0.0000 C   0  0  0  0  0  0  0  0  0  0  0  0
    8.0848   -0.9989    0.0000 C   0  0  0  0  0  0  0  0  0  0  0  0
    7.8299   -1.7835    0.0000 C   0  0  0  0  0  0  0  0  0  0  0  0
    7.0049   -1.7835    0.0000 C   0  0  0  0  0  0  0  0  0  0  0  0
    6.4529   -2.3966    0.0000 C   0  0  0  0  0  0  0  0  0  0  0  0
    5.6459   -2.2251    0.0000 C   0  0  0  0  0  0  0  0  0  0  0  0
    5.3910   -1.4405    0.0000 C   0  0  0  0  0  0  0  0  0  0  0  0
    5.9430   -0.8274    0.0000 C   0  0  0  0  0  0  0  0  0  0  0  0
    6.7500   -0.9989    0.0000 C   0  0  0  0  0  0  0  0  0  0  0  0
    5.9885    1.9610    0.0000 C   0  0  0  0  0  0  0  0  0  0  0  0
    5.2740    2.3735    0.0000 C   0  0  0  0  0  0  0  0  0  0  0  0
    4.4894    2.1186    0.0000 O   0  0  0  0  0  0  0  0  0  0  0  0
    4.0045    2.7860    0.0000 C   0  0  0  0  0  0  0  0  0  0  0  0
    4.4894    3.4534    0.0000 O   0  0  0  0  0  0  0  0  0  0  0  0
    5.2740    3.1985    0.0000 C   0  0  0  0  0  0  0  0  0  0  0  0
  1  2  1  0  0  0  0
  2  3  1  0  0  0  0
  3  4  2  0  0  0  0
  4  5  1  0  0  0  0
  5  6  1  0  0  0  0
  6  7  1  0  0  0  0
  7  8  1  0  0  0  0
  8  9  1  0  0  0  0
  9 10  1  0  0  0  0
 10 11  1  0  0  0  0
 11 12  1  0  0  0  0
  7 12  1  0  0  0  0
 10 13  1  0  0  0  0
 13 14  2  0  0  0  0
 14 15  1  0  0  0  0
 15 16  2  0  0  0  0
 16 17  1  0  0  0  0
 17 18  2  0  0  0  0
 18 19  1  0  0  0  0
 19 20  2  0  0  0  0
 10 20  1  0  0  0  0
 15 20  1  0  0  0  0
  5 21  2  0  0  0  0
 21 22  1  0  0  0  0
 22 23  1  0  0  0  0
 23 24  1  0  0  0  0
 24 25  1  0  0  0  0
 25 26  1  0  0  0  0
  3 26  1  0  0  0  0
 22 26  2  0  0  0  0
M  END
> <COMPOUND_ID>
MMV688941

$$$$

  Mrv0541 04191616472D          

 28 31  0  0  0  0            999 V2000
   -2.0367    2.0009    0.0000 Br  0  0  0  0  0  0  0  0  0  0  0  0
   -2.0367    1.1759    0.0000 C   0  0  0  0  0  0  0  0  0  0  0  0
   -1.3222    0.7634    0.0000 C   0  0  0  0  0  0  0  0  0  0  0  0
   -1.3222   -0.0616    0.0000 N   0  0  0  0  0  0  0  0  0  0  0  0
   -2.0367   -0.4741    0.0000 C   0  0  0  0  0  0  0  0  0  0  0  0
   -2.7512   -0.0616    0.0000 C   0  0  0  0  0  0  0  0  0  0  0  0
   -2.7512    0.7634    0.0000 C   0  0  0  0  0  0  0  0  0  0  0  0
   -3.4656   -0.4741    0.0000 C   0  0  0  0  0  0  0  0  0  0  0  0
   -3.4656   -1.2991    0.0000 C   0  0  0  0  0  0  0  0  0  0  0  0
   -4.1801   -1.7116    0.0000 C   0  0  0  0  0  0  0  0  0  0  0  0
   -4.1801   -2.5366    0.0000 N   0  0  0  0  0  0  0  0  0  0  0  0
   -3.4656   -2.9491    0.0000 C   0  0  0  0  0  0  0  0  0  0  0  0
   -3.4656   -3.7741    0.0000 C   0  0  0  0  0  0  0  0  0  0  0  0
   -2.7512   -4.1866    0.0000 C   0  0  0  0  0  0  0  0  0  0  0  0
   -2.7512   -5.0116    0.0000 N   0  0  0  0  0  0  0  0  0  0  0  0
   -2.0837   -5.4965    0.0000 C   0  0  0  0  0  0  0  0  0  0  0  0
   -2.3387   -6.2812    0.0000 C   0  0  0  0  0  0  0  0  0  0  0  0
   -3.1637   -6.2812    0.0000 N   0  0  0  0  0  0  0  0  0  0  0  0
   -3.4186   -5.4965    0.0000 C   0  0  0  0  0  0  0  0  0  0  0  0
   -4.8946   -1.2991    0.0000 N   0  0  0  0  0  0  0  0  0  0  0  0
   -4.8946   -0.4741    0.0000 C   0  0  0  0  0  0  0  0  0  0  0  0
   -4.1801   -0.0616    0.0000 N   0  0  0  0  0  0  0  0  0  0  0  0
   -5.6091   -0.0616    0.0000 C   0  0  0  0  0  0  0  0  0  0  0  0
   -6.3235   -0.4741    0.0000 C   0  0  0  0  0  0  0  0  0  0  0  0
   -7.0380   -0.0616    0.0000 C   0  0  0  0  0  0  0  0  0  0  0  0
   -7.0380    0.7634    0.0000 C   0  0  0  0  0  0  0  0  0  0  0  0
   -6.3235    1.1759    0.0000 C   0  0  0  0  0  0  0  0  0  0  0  0
   -5.6091    0.7634    0.0000 C   0  0  0  0  0  0  0  0  0  0  0  0
  1  2  1  0  0  0  0
  2  3  2  0  0  0  0
  3  4  1  0  0  0  0
  4  5  2  0  0  0  0
  5  6  1  0  0  0  0
  6  7  2  0  0  0  0
  2  7  1  0  0  0  0
  6  8  1  0  0  0  0
  8  9  2  0  0  0  0
  9 10  1  0  0  0  0
 10 11  1  0  0  0  0
 11 12  1  0  0  0  0
 12 13  1  0  0  0  0
 13 14  1  0  0  0  0
 14 15  1  0  0  0  0
 15 16  1  0  0  0  0
 16 17  2  0  0  0  0
 17 18  1  0  0  0  0
 18 19  2  0  0  0  0
 15 19  1  0  0  0  0
 10 20  2  0  0  0  0
 20 21  1  0  0  0  0
 21 22  2  0  0  0  0
  8 22  1  0  0  0  0
 21 23  1  0  0  0  0
 23 24  2  0  0  0  0
 24 25  1  0  0  0  0
 25 26  2  0  0  0  0
 26 27  1  0  0  0  0
 27 28  2  0  0  0  0
 23 28  1  0  0  0  0
M  END
> <COMPOUND_ID>
MMV661713

$$$$

  Mrv0541 04191616472D          

 25 27  0  0  0  0            999 V2000
   -3.3915    2.3716    0.0000 C   0  0  0  0  0  0  0  0  0  0  0  0
   -3.0559    1.6179    0.0000 C   0  0  0  0  0  0  0  0  0  0  0  0
   -2.2354    1.5317    0.0000 O   0  0  0  0  0  0  0  0  0  0  0  0
   -1.8999    0.7780    0.0000 C   0  0  0  0  0  0  0  0  0  0  0  0
   -1.0794    0.6918    0.0000 C   0  0  0  0  0  0  0  0  0  0  0  0
   -0.7438   -0.0619    0.0000 C   0  0  0  0  0  0  0  0  0  0  0  0
   -1.2288   -0.7293    0.0000 C   0  0  0  0  0  0  0  0  0  0  0  0
   -2.0492   -0.6431    0.0000 C   0  0  0  0  0  0  0  0  0  0  0  0
   -2.3848    0.1106    0.0000 C   0  0  0  0  0  0  0  0  0  0  0  0
   -0.8932   -1.4830    0.0000 C   0  0  0  0  0  0  0  0  0  0  0  0
   -0.0862   -1.6545    0.0000 N   0  0  0  0  0  0  0  0  0  0  0  0
    0.0000   -2.4750    0.0000 C   0  0  0  0  0  0  0  0  0  0  0  0
    0.7145   -2.8875    0.0000 C   0  0  0  0  0  0  0  0  0  0  0  0
    1.4289   -2.4750    0.0000 N   0  0  0  0  0  0  0  0  0  0  0  0
    2.1434   -2.8875    0.0000 C   0  0  0  0  0  0  0  0  0  0  0  0
    2.8579   -2.4750    0.0000 C   0  0  0  0  0  0  0  0  0  0  0  0
    3.5724   -2.8875    0.0000 C   0  0  0  0  0  0  0  0  0  0  0  0
    4.2868   -2.4750    0.0000 C   0  0  0  0  0  0  0  0  0  0  0  0
    5.0013   -2.8875    0.0000 C   0  0  0  0  0  0  0  0  0  0  0  0
    5.0013   -3.7125    0.0000 C   0  0  0  0  0  0  0  0  0  0  0  0
    5.7158   -4.1250    0.0000 F   0  0  0  0  0  0  0  0  0  0  0  0
    4.2868   -4.1250    0.0000 C   0  0  0  0  0  0  0  0  0  0  0  0
    3.5724   -3.7125    0.0000 C   0  0  0  0  0  0  0  0  0  0  0  0
   -0.7537   -2.8106    0.0000 C   0  0  0  0  0  0  0  0  0  0  0  0
   -1.3057   -2.1975    0.0000 S   0  0  0  0  0  0  0  0  0  0  0  0
  1  2  1  0  0  0  0
  2  3  1  0  0  0  0
  3  4  1  0  0  0  0
  4  5  2  0  0  0  0
  5  6  1  0  0  0  0
  6  7  2  0  0  0  0
  7  8  1  0  0  0  0
  8  9  2  0  0  0  0
  4  9  1  0  0  0  0
  7 10  1  0  0  0  0
 10 11  2  0  0  0  0
 11 12  1  0  0  0  0
 12 13  1  0  0  0  0
 13 14  1  0  0  0  0
 14 15  1  0  0  0  0
 15 16  1  0  0  0  0
 16 17  1  0  0  0  0
 17 18  2  0  0  0  0
 18 19  1  0  0  0  0
 19 20  2  0  0  0  0
 20 21  1  0  0  0  0
 20 22  1  0  0  0  0
 22 23  2  0  0  0  0
 17 23  1  0  0  0  0
 12 24  2  0  0  0  0
 24 25  1  0  0  0  0
 10 25  1  0  0  0  0
M  END
> <COMPOUND_ID>
MMV688938

$$$$

  Mrv0541 04191616472D          

 26 27  0  0  0  0            999 V2000
    5.0013   -3.7125    0.0000 C   0  0  0  0  0  0  0  0  0  0  0  0
    4.2868   -3.3000    0.0000 C   0  0  0  0  0  0  0  0  0  0  0  0
    4.2868   -2.4750    0.0000 C   0  0  0  0  0  0  0  0  0  0  0  0
    3.5724   -2.0625    0.0000 N   0  0  0  0  0  0  0  0  0  0  0  0
    2.8579   -2.4750    0.0000 C   0  0  0  0  0  0  0  0  0  0  0  0
    2.8579   -3.3000    0.0000 O   0  0  0  0  0  0  0  0  0  0  0  0
    2.1434   -2.0625    0.0000 C   0  0  0  0  0  0  0  0  0  0  0  0
    1.4289   -2.4750    0.0000 C   0  0  0  0  0  0  0  0  0  0  0  0
    0.7145   -2.0625    0.0000 C   0  0  0  0  0  0  0  0  0  0  0  0
    0.7145   -1.2375    0.0000 C   0  0  0  0  0  0  0  0  0  0  0  0
    1.4289   -0.8250    0.0000 C   0  0  0  0  0  0  0  0  0  0  0  0
    2.1434   -1.2375    0.0000 C   0  0  0  0  0  0  0  0  0  0  0  0
    2.8579   -0.8250    0.0000 N   0  0  0  0  0  0  0  0  0  0  0  0
    2.8579    0.0000    0.0000 C   0  0  0  0  0  0  0  0  0  0  0  0
    2.1434    0.4125    0.0000 O   0  0  0  0  0  0  0  0  0  0  0  0
    3.5724    0.4125    0.0000 C   0  0  0  0  0  0  0  0  0  0  0  0
    3.5724    1.2375    0.0000 C   0  0  0  0  0  0  0  0  0  0  0  0
    4.2868    1.6500    0.0000 C   0  0  0  0  0  0  0  0  0  0  0  0
    5.0013    1.2375    0.0000 C   0  0  0  0  0  0  0  0  0  0  0  0
    5.7158    1.6500    0.0000 C   0  0  0  0  0  0  0  0  0  0  0  0
    5.0013    0.4125    0.0000 C   0  0  0  0  0  0  0  0  0  0  0  0
    4.2868    0.0000    0.0000 C   0  0  0  0  0  0  0  0  0  0  0  0
    5.0013   -2.0625    0.0000 C   0  0  0  0  0  0  0  0  0  0  0  0
    5.0013   -1.2375    0.0000 O   0  0  0  0  0  0  0  0  0  0  0  0
    5.7158   -2.4750    0.0000 O   0  0  0  0  0  0  0  0  0  0  0  0
    6.4302   -2.0625    0.0000 C   0  0  0  0  0  0  0  0  0  0  0  0
  1  2  1  0  0  0  0
  2  3  1  0  0  0  0
  3  4  1  0  0  0  0
  4  5  1  0  0  0  0
  5  6  2  0  0  0  0
  5  7  1  0  0  0  0
  7  8  2  0  0  0  0
  8  9  1  0  0  0  0
  9 10  2  0  0  0  0
 10 11  1  0  0  0  0
 11 12  2  0  0  0  0
  7 12  1  0  0  0  0
 12 13  1  0  0  0  0
 13 14  1  0  0  0  0
 14 15  2  0  0  0  0
 14 16  1  0  0  0  0
 16 17  2  0  0  0  0
 17 18  1  0  0  0  0
 18 19  2  0  0  0  0
 19 20  1  0  0  0  0
 19 21  1  0  0  0  0
 21 22  2  0  0  0  0
 16 22  1  0  0  0  0
  3 23  1  0  0  0  0
 23 24  2  0  0  0  0
 23 25  1  0  0  0  0
 25 26  1  0  0  0  0
M  END
> <COMPOUND_ID>
MMV019551

$$$$

  Mrv0541 04191616472D          

 28 30  0  0  0  0            999 V2000
    1.4289   -0.8250    0.0000 C   0  0  0  0  0  0  0  0  0  0  0  0
    1.4289   -1.6500    0.0000 C   0  0  0  0  0  0  0  0  0  0  0  0
    0.6039   -1.6500    0.0000 C   0  0  0  0  0  0  0  0  0  0  0  0
    2.2539   -1.6500    0.0000 C   0  0  0  0  0  0  0  0  0  0  0  0
    1.4289   -2.4750    0.0000 C   0  0  0  0  0  0  0  0  0  0  0  0
    2.1434   -2.8875    0.0000 C   0  0  0  0  0  0  0  0  0  0  0  0
    2.1434   -3.7125    0.0000 C   0  0  0  0  0  0  0  0  0  0  0  0
    1.4289   -4.1250    0.0000 C   0  0  0  0  0  0  0  0  0  0  0  0
    0.7145   -3.7125    0.0000 C   0  0  0  0  0  0  0  0  0  0  0  0
    0.7145   -2.8875    0.0000 C   0  0  0  0  0  0  0  0  0  0  0  0
    0.0000   -4.1250    0.0000 C   0  0  0  0  0  0  0  0  0  0  0  0
    0.0000   -4.9500    0.0000 O   0  0  0  0  0  0  0  0  0  0  0  0
   -0.7145   -3.7125    0.0000 N   0  0  0  0  0  0  0  0  0  0  0  0
   -1.4289   -4.1250    0.0000 C   0  0  0  0  0  0  0  0  0  0  0  0
   -1.4289   -4.9500    0.0000 C   0  0  0  0  0  0  0  0  0  0  0  0
   -2.1434   -5.3625    0.0000 C   0  0  0  0  0  0  0  0  0  0  0  0
   -2.8579   -4.9500    0.0000 C   0  0  0  0  0  0  0  0  0  0  0  0
   -2.8579   -4.1250    0.0000 N   0  0  0  0  0  0  0  0  0  0  0  0
   -2.1434   -3.7125    0.0000 C   0  0  0  0  0  0  0  0  0  0  0  0
    2.8579   -4.1250    0.0000 C   0  0  0  0  0  0  0  0  0  0  0  0
    2.8579   -4.9500    0.0000 O   0  0  0  0  0  0  0  0  0  0  0  0
    3.5724   -3.7125    0.0000 N   0  0  0  0  0  0  0  0  0  0  0  0
    4.2868   -4.1250    0.0000 C   0  0  0  0  0  0  0  0  0  0  0  0
    5.0013   -3.7125    0.0000 C   0  0  0  0  0  0  0  0  0  0  0  0
    5.7158   -4.1250    0.0000 C   0  0  0  0  0  0  0  0  0  0  0  0
    5.7158   -4.9500    0.0000 C   0  0  0  0  0  0  0  0  0  0  0  0
    5.0013   -5.3625    0.0000 N   0  0  0  0  0  0  0  0  0  0  0  0
    4.2868   -4.9500    0.0000 C   0  0  0  0  0  0  0  0  0  0  0  0
  1  2  1  0  0  0  0
  2  3  1  0  0  0  0
  2  4  1  0  0  0  0
  2  5  1  0  0  0  0
  5  6  2  0  0  0  0
  6  7  1  0  0  0  0
  7  8  2  0  0  0  0
  8  9  1  0  0  0  0
  9 10  2  0  0  0  0
  5 10  1  0  0  0  0
  9 11  1  0  0  0  0
 11 12  2  0  0  0  0
 11 13  1  0  0  0  0
 13 14  1  0  0  0  0
 14 15  2  0  0  0  0
 15 16  1  0  0  0  0
 16 17  2  0  0  0  0
 17 18  1  0  0  0  0
 18 19  2  0  0  0  0
 14 19  1  0  0  0  0
  7 20  1  0  0  0  0
 20 21  2  0  0  0  0
 20 22  1  0  0  0  0
 22 23  1  0  0  0  0
 23 24  2  0  0  0  0
 24 25  1  0  0  0  0
 25 26  2  0  0  0  0
 26 27  1  0  0  0  0
 27 28  2  0  0  0  0
 23 28  1  0  0  0  0
M  END
> <COMPOUND_ID>
MMV020982

$$$$

  Mrv0541 04191616472D          

 22 25  0  0  0  0            999 V2000
    1.4289   -4.1250    0.0000 C   0  0  0  0  0  0  0  0  0  0  0  0
    0.7145   -3.7125    0.0000 C   0  0  0  0  0  0  0  0  0  0  0  0
    0.7145   -2.8875    0.0000 C   0  0  0  0  0  0  0  0  0  0  0  0
    1.4289   -2.4750    0.0000 N   0  0  0  0  0  0  0  0  0  0  0  0
    2.1434   -2.8875    0.0000 C   0  0  0  0  0  0  0  0  0  0  0  0
    2.1434   -3.7125    0.0000 C   0  0  0  0  0  0  0  0  0  0  0  0
    1.4289   -1.6500    0.0000 C   0  0  0  0  0  0  0  0  0  0  0  0
    0.7145   -1.2375    0.0000 C   0  0  0  0  0  0  0  0  0  0  0  0
    0.7145   -0.4125    0.0000 C   0  0  0  0  0  0  0  0  0  0  0  0
    1.4289    0.0000    0.0000 N   0  0  0  0  0  0  0  0  0  0  0  0
    2.1434   -0.4125    0.0000 C   0  0  0  0  0  0  0  0  0  0  0  0
    2.8579    0.0000    0.0000 C   0  0  0  0  0  0  0  0  0  0  0  0
    3.5724   -0.4125    0.0000 C   0  0  0  0  0  0  0  0  0  0  0  0
    3.5724   -1.2375    0.0000 C   0  0  0  0  0  0  0  0  0  0  0  0
    2.8579   -1.6500    0.0000 C   0  0  0  0  0  0  0  0  0  0  0  0
    2.1434   -1.2375    0.0000 C   0  0  0  0  0  0  0  0  0  0  0  0
    0.0000    0.0000    0.0000 C   0  0  0  0  0  0  0  0  0  0  0  0
   -0.7145   -0.4125    0.0000 C   0  0  0  0  0  0  0  0  0  0  0  0
   -1.4289    0.0000    0.0000 C   0  0  0  0  0  0  0  0  0  0  0  0
   -1.4289    0.8250    0.0000 C   0  0  0  0  0  0  0  0  0  0  0  0
   -0.7145    1.2375    0.0000 C   0  0  0  0  0  0  0  0  0  0  0  0
    0.0000    0.8250    0.0000 N   0  0  0  0  0  0  0  0  0  0  0  0
  1  2  1  0  0  0  0
  2  3  1  0  0  0  0
  3  4  1  0  0  0  0
  4  5  1  0  0  0  0
  5  6  1  0  0  0  0
  1  6  1  0  0  0  0
  4  7  1  0  0  0  0
  7  8  1  0  0  0  0
  8  9  2  0  0  0  0
  9 10  1  0  0  0  0
 10 11  2  0  0  0  0
 11 12  1  0  0  0  0
 12 13  2  0  0  0  0
 13 14  1  0  0  0  0
 14 15  2  0  0  0  0
 15 16  1  0  0  0  0
  7 16  2  0  0  0  0
 11 16  1  0  0  0  0
  9 17  1  0  0  0  0
 17 18  2  0  0  0  0
 18 19  1  0  0  0  0
 19 20  2  0  0  0  0
 20 21  1  0  0  0  0
 21 22  2  0  0  0  0
 17 22  1  0  0  0  0
M  END
> <COMPOUND_ID>
MMV560185

$$$$

  Mrv0541 04191616472D          

 30 33  0  0  0  0            999 V2000
    7.7525    3.6509    0.0000 O   0  0  0  0  0  0  0  0  0  0  0  0
    8.4669    3.2384    0.0000 C   0  0  0  0  0  0  0  0  0  0  0  0
    8.4669    2.4134    0.0000 N   0  0  0  0  0  0  0  0  0  0  0  0
    9.1814    2.0009    0.0000 C   0  0  0  0  0  0  0  0  0  0  0  0
    9.8959    2.4134    0.0000 C   0  0  0  0  0  0  0  0  0  0  0  0
   10.6104    2.0009    0.0000 C   0  0  0  0  0  0  0  0  0  0  0  0
   10.6104    1.1759    0.0000 C   0  0  0  0  0  0  0  0  0  0  0  0
    9.8959    0.7634    0.0000 C   0  0  0  0  0  0  0  0  0  0  0  0
    9.1814    1.1759    0.0000 C   0  0  0  0  0  0  0  0  0  0  0  0
    9.8959   -0.0616    0.0000 C   0  0  0  0  0  0  0  0  0  0  0  0
   10.6104   -0.4741    0.0000 C   0  0  0  0  0  0  0  0  0  0  0  0
   10.6104   -1.2991    0.0000 C   0  0  0  0  0  0  0  0  0  0  0  0
    9.8959   -1.7116    0.0000 C   0  0  0  0  0  0  0  0  0  0  0  0
    9.8959   -2.5366    0.0000 N   0  0  0  0  0  0  0  0  0  0  0  0
    9.1814   -2.9491    0.0000 C   0  0  0  0  0  0  0  0  0  0  0  0
    9.1814   -3.7741    0.0000 C   0  0  0  0  0  0  0  0  0  0  0  0
    8.4669   -4.1866    0.0000 C   0  0  0  0  0  0  0  0  0  0  0  0
    8.4669   -5.0116    0.0000 N   0  0  0  0  0  0  0  0  0  0  0  0
    9.1344   -5.4965    0.0000 C   0  0  0  0  0  0  0  0  0  0  0  0
    8.8794   -6.2812    0.0000 C   0  0  0  0  0  0  0  0  0  0  0  0
    8.0544   -6.2812    0.0000 C   0  0  0  0  0  0  0  0  0  0  0  0
    7.7995   -5.4965    0.0000 C   0  0  0  0  0  0  0  0  0  0  0  0
    9.1814   -1.2991    0.0000 N   0  0  0  0  0  0  0  0  0  0  0  0
    9.1814   -0.4741    0.0000 C   0  0  0  0  0  0  0  0  0  0  0  0
    9.1814    3.6509    0.0000 C   0  0  0  0  0  0  0  0  0  0  0  0
    9.1814    4.4759    0.0000 C   0  0  0  0  0  0  0  0  0  0  0  0
    9.8959    4.8884    0.0000 C   0  0  0  0  0  0  0  0  0  0  0  0
   10.6104    4.4759    0.0000 C   0  0  0  0  0  0  0  0  0  0  0  0
   10.6104    3.6509    0.0000 C   0  0  0  0  0  0  0  0  0  0  0  0
    9.8959    3.2384    0.0000 C   0  0  0  0  0  0  0  0  0  0  0  0
  1  2  2  0  0  0  0
  2  3  1  0  0  0  0
  3  4  1  0  0  0  0
  4  5  2  0  0  0  0
  5  6  1  0  0  0  0
  6  7  2  0  0  0  0
  7  8  1  0  0  0  0
  8  9  2  0  0  0  0
  4  9  1  0  0  0  0
  8 10  1  0  0  0  0
 10 11  2  0  0  0  0
 11 12  1  0  0  0  0
 12 13  2  0  0  0  0
 13 14  1  0  0  0  0
 14 15  1  0  0  0  0
 15 16  1  0  0  0  0
 16 17  1  0  0  0  0
 17 18  1  0  0  0  0
 18 19  1  0  0  0  0
 19 20  1  0  0  0  0
 20 21  1  0  0  0  0
 21 22  1  0  0  0  0
 18 22  1  0  0  0  0
 13 23  1  0  0  0  0
 23 24  2  0  0  0  0
 10 24  1  0  0  0  0
  2 25  1  0  0  0  0
 25 26  2  0  0  0  0
 26 27  1  0  0  0  0
 27 28  2  0  0  0  0
 28 29  1  0  0  0  0
 29 30  2  0  0  0  0
 25 30  1  0  0  0  0
M  END
> <COMPOUND_ID>
MMV023953

$$$$

  Mrv0541 04191616472D          

 32 35  0  0  0  0            999 V2000
    4.2868   -7.4250    0.0000 C   0  0  0  0  0  0  0  0  0  0  0  0
    4.2868   -8.2500    0.0000 N   0  0  0  0  0  0  0  0  0  0  0  0
    5.0013   -8.6625    0.0000 C   0  0  0  0  0  0  0  0  0  0  0  0
    5.0013   -9.4875    0.0000 C   0  0  0  0  0  0  0  0  0  0  0  0
    4.2868   -9.9000    0.0000 C   0  0  0  0  0  0  0  0  0  0  0  0
    3.5724   -9.4875    0.0000 C   0  0  0  0  0  0  0  0  0  0  0  0
    3.5724   -8.6625    0.0000 C   0  0  0  0  0  0  0  0  0  0  0  0
    4.2868  -10.7250    0.0000 N   0  0  0  0  0  0  0  0  0  0  0  0
    3.5724  -11.1375    0.0000 C   0  0  0  0  0  0  0  0  0  0  0  0
    3.5724  -11.9625    0.0000 C   0  0  0  0  0  0  0  0  0  0  0  0
    4.2868  -12.3750    0.0000 C   0  0  0  0  0  0  0  0  0  0  0  0
    4.2868  -13.2000    0.0000 C   0  0  0  0  0  0  0  0  0  0  0  0
    3.5724  -13.6125    0.0000 C   0  0  0  0  0  0  0  0  0  0  0  0
    2.8579  -13.2000    0.0000 C   0  0  0  0  0  0  0  0  0  0  0  0
    2.8579  -12.3750    0.0000 C   0  0  0  0  0  0  0  0  0  0  0  0
    2.1434  -13.6125    0.0000 C   0  0  0  0  0  0  0  0  0  0  0  0
    2.1434  -14.4375    0.0000 C   0  0  0  0  0  0  0  0  0  0  0  0
    1.4289  -14.8500    0.0000 C   0  0  0  0  0  0  0  0  0  0  0  0
    0.7145  -14.4375    0.0000 C   0  0  0  0  0  0  0  0  0  0  0  0
    0.7145  -13.6125    0.0000 C   0  0  0  0  0  0  0  0  0  0  0  0
    1.4289  -13.2000    0.0000 C   0  0  0  0  0  0  0  0  0  0  0  0
   -0.0000  -14.8500    0.0000 S   0  0  0  0  0  0  0  0  0  0  0  0
   -0.4125  -14.1355    0.0000 O   0  0  0  0  0  0  0  0  0  0  0  0
    0.4125  -15.5645    0.0000 O   0  0  0  0  0  0  0  0  0  0  0  0
   -0.7145  -15.2625    0.0000 N   0  0  0  0  0  0  0  0  0  0  0  0
   -0.7145  -16.0875    0.0000 C   0  0  0  0  0  0  0  0  0  0  0  0
   -1.4289  -16.5000    0.0000 C   0  0  0  0  0  0  0  0  0  0  0  0
   -1.4289  -17.3250    0.0000 C   0  0  0  0  0  0  0  0  0  0  0  0
   -2.1434  -17.7375    0.0000 C   0  0  0  0  0  0  0  0  0  0  0  0
   -2.8579  -17.3250    0.0000 C   0  0  0  0  0  0  0  0  0  0  0  0
   -2.8579  -16.5000    0.0000 C   0  0  0  0  0  0  0  0  0  0  0  0
   -2.1434  -16.0875    0.0000 C   0  0  0  0  0  0  0  0  0  0  0  0
  1  2  1  0  0  0  0
  2  3  1  0  0  0  0
  3  4  1  0  0  0  0
  4  5  1  0  0  0  0
  5  6  1  0  0  0  0
  6  7  1  0  0  0  0
  2  7  1  0  0  0  0
  5  8  1  0  0  0  0
  8  9  1  0  0  0  0
  9 10  1  0  0  0  0
 10 11  2  0  0  0  0
 11 12  1  0  0  0  0
 12 13  2  0  0  0  0
 13 14  1  0  0  0  0
 14 15  2  0  0  0  0
 10 15  1  0  0  0  0
 14 16  1  0  0  0  0
 16 17  2  0  0  0  0
 17 18  1  0  0  0  0
 18 19  2  0  0  0  0
 19 20  1  0  0  0  0
 20 21  2  0  0  0  0
 16 21  1  0  0  0  0
 19 22  1  0  0  0  0
 22 23  2  0  0  0  0
 22 24  2  0  0  0  0
 22 25  1  0  0  0  0
 25 26  1  0  0  0  0
 26 27  1  0  0  0  0
 27 28  2  0  0  0  0
 28 29  1  0  0  0  0
 29 30  2  0  0  0  0
 30 31  1  0  0  0  0
 31 32  2  0  0  0  0
 27 32  1  0  0  0  0
M  END
> <COMPOUND_ID>
MMV022029

$$$$

  Mrv0541 04191616472D          

 26 29  0  0  0  0            999 V2000
    3.5724   -3.7125    0.0000 C   0  0  0  0  0  0  0  0  0  0  0  0
    2.8579   -4.1250    0.0000 O   0  0  0  0  0  0  0  0  0  0  0  0
    2.8579   -4.9500    0.0000 C   0  0  0  0  0  0  0  0  0  0  0  0
    3.5724   -5.3625    0.0000 C   0  0  0  0  0  0  0  0  0  0  0  0
    3.5724   -6.1875    0.0000 N   0  0  0  0  0  0  0  0  0  0  0  0
    2.8579   -6.6000    0.0000 C   0  0  0  0  0  0  0  0  0  0  0  0
    2.1434   -6.1875    0.0000 C   0  0  0  0  0  0  0  0  0  0  0  0
    2.1434   -5.3625    0.0000 C   0  0  0  0  0  0  0  0  0  0  0  0
    1.4289   -6.6000    0.0000 C   0  0  0  0  0  0  0  0  0  0  0  0
    1.4289   -7.4250    0.0000 C   0  0  0  0  0  0  0  0  0  0  0  0
    0.7145   -7.8375    0.0000 N   0  0  0  0  0  0  0  0  0  0  0  0
    0.0000   -7.4250    0.0000 C   0  0  0  0  0  0  0  0  0  0  0  0
    0.0000   -6.6000    0.0000 C   0  0  0  0  0  0  0  0  0  0  0  0
    0.7145   -6.1875    0.0000 N   0  0  0  0  0  0  0  0  0  0  0  0
   -0.7145   -6.1875    0.0000 N   0  0  0  0  0  0  0  0  0  0  0  0
   -1.4289   -6.6000    0.0000 C   0  0  0  0  0  0  0  0  0  0  0  0
   -2.1434   -6.1875    0.0000 C   0  0  0  0  0  0  0  0  0  0  0  0
   -2.1434   -5.3625    0.0000 N   0  0  0  0  0  0  0  0  0  0  0  0
   -1.4289   -4.9500    0.0000 C   0  0  0  0  0  0  0  0  0  0  0  0
   -0.7145   -5.3625    0.0000 C   0  0  0  0  0  0  0  0  0  0  0  0
   -2.8579   -4.9500    0.0000 C   0  0  0  0  0  0  0  0  0  0  0  0
   -3.5724   -5.3625    0.0000 C   0  0  0  0  0  0  0  0  0  0  0  0
   -4.2868   -4.9500    0.0000 C   0  0  0  0  0  0  0  0  0  0  0  0
   -4.2868   -4.1250    0.0000 N   0  0  0  0  0  0  0  0  0  0  0  0
   -3.5724   -3.7125    0.0000 C   0  0  0  0  0  0  0  0  0  0  0  0
   -2.8579   -4.1250    0.0000 C   0  0  0  0  0  0  0  0  0  0  0  0
  1  2  1  0  0  0  0
  2  3  1  0  0  0  0
  3  4  2  0  0  0  0
  4  5  1  0  0  0  0
  5  6  2  0  0  0  0
  6  7  1  0  0  0  0
  7  8  2  0  0  0  0
  3  8  1  0  0  0  0
  7  9  1  0  0  0  0
  9 10  2  0  0  0  0
 10 11  1  0  0  0  0
 11 12  2  0  0  0  0
 12 13  1  0  0  0  0
 13 14  2  0  0  0  0
  9 14  1  0  0  0  0
 13 15  1  0  0  0  0
 15 16  1  0  0  0  0
 16 17  1  0  0  0  0
 17 18  1  0  0  0  0
 18 19  1  0  0  0  0
 19 20  1  0  0  0  0
 15 20  1  0  0  0  0
 18 21  1  0  0  0  0
 21 22  2  0  0  0  0
 22 23  1  0  0  0  0
 23 24  2  0  0  0  0
 24 25  1  0  0  0  0
 25 26  2  0  0  0  0
 21 26  1  0  0  0  0
M  END
> <COMPOUND_ID>
MMV085071

$$$$

  Mrv0541 04191616472D          

 29 33  0  0  0  0            999 V2000
    1.4461    6.8949    0.0000 N   0  0  0  0  0  0  0  0  0  0  0  0
    1.9982    6.2818    0.0000 C   0  0  0  0  0  0  0  0  0  0  0  0
    1.7432    5.4971    0.0000 C   0  0  0  0  0  0  0  0  0  0  0  0
    0.9362    5.3256    0.0000 O   0  0  0  0  0  0  0  0  0  0  0  0
    2.2953    4.8841    0.0000 N   0  0  0  0  0  0  0  0  0  0  0  0
    2.0403    4.0994    0.0000 C   0  0  0  0  0  0  0  0  0  0  0  0
    2.5923    3.4863    0.0000 C   0  0  0  0  0  0  0  0  0  0  0  0
    3.3993    3.6579    0.0000 N   0  0  0  0  0  0  0  0  0  0  0  0
    3.6543    4.4425    0.0000 C   0  0  0  0  0  0  0  0  0  0  0  0
    3.1022    5.0556    0.0000 C   0  0  0  0  0  0  0  0  0  0  0  0
    4.4793    4.4425    0.0000 N   0  0  0  0  0  0  0  0  0  0  0  0
    4.7342    3.6579    0.0000 C   0  0  0  0  0  0  0  0  0  0  0  0
    4.0668    3.1729    0.0000 C   0  0  0  0  0  0  0  0  0  0  0  0
    4.0668    2.3479    0.0000 N   0  0  0  0  0  0  0  0  0  0  0  0
    3.3523    1.9354    0.0000 C   0  0  0  0  0  0  0  0  0  0  0  0
    3.3523    1.1104    0.0000 C   0  0  0  0  0  0  0  0  0  0  0  0
    2.6378    0.6979    0.0000 C   0  0  0  0  0  0  0  0  0  0  0  0
    1.9233    1.1104    0.0000 C   0  0  0  0  0  0  0  0  0  0  0  0
    1.1387    0.8555    0.0000 O   0  0  0  0  0  0  0  0  0  0  0  0
    0.6538    1.5229    0.0000 C   0  0  0  0  0  0  0  0  0  0  0  0
    1.1387    2.1904    0.0000 O   0  0  0  0  0  0  0  0  0  0  0  0
    1.9233    1.9354    0.0000 C   0  0  0  0  0  0  0  0  0  0  0  0
    2.6378    2.3479    0.0000 C   0  0  0  0  0  0  0  0  0  0  0  0
    5.5188    3.4029    0.0000 C   0  0  0  0  0  0  0  0  0  0  0  0
    6.1319    3.9550    0.0000 C   0  0  0  0  0  0  0  0  0  0  0  0
    6.9165    3.7000    0.0000 C   0  0  0  0  0  0  0  0  0  0  0  0
    7.0881    2.8930    0.0000 C   0  0  0  0  0  0  0  0  0  0  0  0
    6.4750    2.3410    0.0000 C   0  0  0  0  0  0  0  0  0  0  0  0
    5.6903    2.5960    0.0000 C   0  0  0  0  0  0  0  0  0  0  0  0
  1  2  1  0  0  0  0
  2  3  1  0  0  0  0
  3  4  2  0  0  0  0
  3  5  1  0  0  0  0
  5  6  1  0  0  0  0
  6  7  1  0  0  0  0
  7  8  1  0  0  0  0
  8  9  1  0  0  0  0
  9 10  1  0  0  0  0
  5 10  1  0  0  0  0
  9 11  2  0  0  0  0
 11 12  1  0  0  0  0
 12 13  2  0  0  0  0
  8 13  1  0  0  0  0
 13 14  1  0  0  0  0
 14 15  1  0  0  0  0
 15 16  2  0  0  0  0
 16 17  1  0  0  0  0
 17 18  2  0  0  0  0
 18 19  1  0  0  0  0
 19 20  1  0  0  0  0
 20 21  1  0  0  0  0
 21 22  1  0  0  0  0
 18 22  1  0  0  0  0
 22 23  2  0  0  0  0
 15 23  1  0  0  0  0
 12 24  1  0  0  0  0
 24 25  2  0  0  0  0
 25 26  1  0  0  0  0
 26 27  2  0  0  0  0
 27 28  1  0  0  0  0
 28 29  2  0  0  0  0
 24 29  1  0  0  0  0
M  END
> <COMPOUND_ID>
MMV011691

$$$$

  Mrv0541 04191616472D          

 31 35  0  0  0  0            999 V2000
    3.0389   -6.8472    0.0000 C   0  0  0  0  0  0  0  0  0  0  0  0
    3.2382   -6.0466    0.0000 N   0  0  0  0  0  0  0  0  0  0  0  0
    2.6445   -5.4737    0.0000 C   0  0  0  0  0  0  0  0  0  0  0  0
    1.8516   -5.7014    0.0000 O   0  0  0  0  0  0  0  0  0  0  0  0
    2.8439   -4.6732    0.0000 C   0  0  0  0  0  0  0  0  0  0  0  0
    3.6368   -4.4455    0.0000 C   0  0  0  0  0  0  0  0  0  0  0  0
    3.8361   -3.6449    0.0000 C   0  0  0  0  0  0  0  0  0  0  0  0
    3.2425   -3.0720    0.0000 C   0  0  0  0  0  0  0  0  0  0  0  0
    3.6039   -2.3304    0.0000 N   0  0  0  0  0  0  0  0  0  0  0  0
    4.4209   -2.4449    0.0000 C   0  0  0  0  0  0  0  0  0  0  0  0
    5.0527   -1.9144    0.0000 C   0  0  0  0  0  0  0  0  0  0  0  0
    5.8280   -2.1963    0.0000 C   0  0  0  0  0  0  0  0  0  0  0  0
    6.4598   -1.6658    0.0000 Cl  0  0  0  0  0  0  0  0  0  0  0  0
    5.9716   -3.0087    0.0000 C   0  0  0  0  0  0  0  0  0  0  0  0
    5.3398   -3.5392    0.0000 C   0  0  0  0  0  0  0  0  0  0  0  0
    4.5644   -3.2573    0.0000 C   0  0  0  0  0  0  0  0  0  0  0  0
    2.4495   -3.2997    0.0000 C   0  0  0  0  0  0  0  0  0  0  0  0
    1.6565   -3.5274    0.0000 C   0  0  0  0  0  0  0  0  0  0  0  0
    1.0629   -2.9545    0.0000 C   0  0  0  0  0  0  0  0  0  0  0  0
    1.2622   -2.1539    0.0000 N   0  0  0  0  0  0  0  0  0  0  0  0
    0.6685   -1.5811    0.0000 C   0  0  0  0  0  0  0  0  0  0  0  0
   -0.1244   -1.8087    0.0000 C   0  0  0  0  0  0  0  0  0  0  0  0
   -0.7181   -1.2358    0.0000 C   0  0  0  0  0  0  0  0  0  0  0  0
   -1.5110   -1.4635    0.0000 C   0  0  0  0  0  0  0  0  0  0  0  0
   -2.1047   -0.8906    0.0000 C   0  0  0  0  0  0  0  0  0  0  0  0
   -1.9054   -0.0901    0.0000 C   0  0  0  0  0  0  0  0  0  0  0  0
   -1.1124    0.1376    0.0000 C   0  0  0  0  0  0  0  0  0  0  0  0
   -0.5188   -0.4353    0.0000 C   0  0  0  0  0  0  0  0  0  0  0  0
    2.0551   -1.9263    0.0000 C   0  0  0  0  0  0  0  0  0  0  0  0
    2.6488   -2.4991    0.0000 C   0  0  0  0  0  0  0  0  0  0  0  0
    2.2502   -4.1003    0.0000 N   0  0  0  0  0  0  0  0  0  0  0  0
  1  2  1  0  0  0  0
  2  3  1  0  0  0  0
  3  4  2  0  0  0  0
  3  5  1  0  0  0  0
  5  6  1  0  0  0  0
  6  7  1  0  0  0  0
  7  8  2  0  0  0  0
  8  9  1  0  0  0  0
  9 10  1  0  0  0  0
 10 11  2  0  0  0  0
 11 12  1  0  0  0  0
 12 13  1  0  0  0  0
 12 14  2  0  0  0  0
 14 15  1  0  0  0  0
 15 16  2  0  0  0  0
  7 16  1  0  0  0  0
 10 16  1  0  0  0  0
  8 17  1  0  0  0  0
 17 18  1  0  0  0  0
 18 19  1  0  0  0  0
 19 20  1  0  0  0  0
 20 21  1  0  0  0  0
 21 22  1  0  0  0  0
 22 23  1  0  0  0  0
 23 24  2  0  0  0  0
 24 25  1  0  0  0  0
 25 26  2  0  0  0  0
 26 27  1  0  0  0  0
 27 28  2  0  0  0  0
 23 28  1  0  0  0  0
 20 29  1  0  0  0  0
 29 30  1  0  0  0  0
 17 30  1  0  0  0  0
 17 31  1  0  0  0  0
  5 31  1  0  0  0  0
M  END
> <COMPOUND_ID>
MMV031011

$$$$

  Mrv0541 04191616472D          

 25 26  0  0  0  0            999 V2000
    0.4323   -6.1377    0.0000 C   0  0  0  0  0  0  0  0  0  0  0  0
    0.4323   -5.3127    0.0000 C   0  0  0  0  0  0  0  0  0  0  0  0
   -0.2822   -4.9002    0.0000 C   0  0  0  0  0  0  0  0  0  0  0  0
   -0.2822   -4.0752    0.0000 S   0  0  0  0  0  0  0  0  0  0  0  0
    0.5428   -4.0752    0.0000 O   0  0  0  0  0  0  0  0  0  0  0  0
   -1.1072   -4.0752    0.0000 O   0  0  0  0  0  0  0  0  0  0  0  0
   -0.2822   -3.2502    0.0000 N   0  0  0  0  0  0  0  0  0  0  0  0
   -0.9966   -2.8377    0.0000 C   0  0  0  0  0  0  0  0  0  0  0  0
   -0.9966   -2.0127    0.0000 C   0  0  0  0  0  0  0  0  0  0  0  0
   -0.2822   -1.6002    0.0000 C   0  0  0  0  0  0  0  0  0  0  0  0
   -0.8125   -0.9683    0.0000 C   0  0  0  0  0  0  0  0  0  0  0  0
   -1.6249   -1.1115    0.0000 O   0  0  0  0  0  0  0  0  0  0  0  0
    0.2481   -0.9683    0.0000 C   0  0  0  0  0  0  0  0  0  0  0  0
   -0.0340   -0.1930    0.0000 C   0  0  0  0  0  0  0  0  0  0  0  0
   -0.8465   -0.0498    0.0000 C   0  0  0  0  0  0  0  0  0  0  0  0
   -1.1287    0.7255    0.0000 C   0  0  0  0  0  0  0  0  0  0  0  0
   -0.5984    1.3575    0.0000 C   0  0  0  0  0  0  0  0  0  0  0  0
    0.2141    1.2142    0.0000 C   0  0  0  0  0  0  0  0  0  0  0  0
    0.4963    0.4390    0.0000 C   0  0  0  0  0  0  0  0  0  0  0  0
    1.3087    0.2957    0.0000 C   0  0  0  0  0  0  0  0  0  0  0  0
    2.1212    0.1525    0.0000 F   0  0  0  0  0  0  0  0  0  0  0  0
    1.1655   -0.5168    0.0000 F   0  0  0  0  0  0  0  0  0  0  0  0
    1.4520    1.1082    0.0000 F   0  0  0  0  0  0  0  0  0  0  0  0
    0.4323   -2.0127    0.0000 C   0  0  0  0  0  0  0  0  0  0  0  0
    0.4323   -2.8377    0.0000 C   0  0  0  0  0  0  0  0  0  0  0  0
  1  2  1  0  0  0  0
  2  3  1  0  0  0  0
  3  4  1  0  0  0  0
  4  5  2  0  0  0  0
  4  6  2  0  0  0  0
  4  7  1  0  0  0  0
  7  8  1  0  0  0  0
  8  9  1  0  0  0  0
  9 10  1  0  0  0  0
 10 11  1  0  0  0  0
 11 12  1  0  0  0  0
 10 13  1  0  0  0  0
 13 14  1  0  0  0  0
 14 15  2  0  0  0  0
 15 16  1  0  0  0  0
 16 17  2  0  0  0  0
 17 18  1  0  0  0  0
 18 19  2  0  0  0  0
 14 19  1  0  0  0  0
 19 20  1  0  0  0  0
 20 21  1  0  0  0  0
 20 22  1  0  0  0  0
 20 23  1  0  0  0  0
 10 24  1  0  0  0  0
 24 25  1  0  0  0  0
  7 25  1  0  0  0  0
M  END
> <COMPOUND_ID>
MMV001059

$$$$

  Mrv0541 04191616472D          

 21 24  0  0  0  0            999 V2000
   -0.4529   -0.9694    0.0000 C   0  0  0  0  0  0  0  0  0  0  0  0
   -0.0404   -0.2549    0.0000 N   0  0  0  0  0  0  0  0  0  0  0  0
    0.7846   -0.2549    0.0000 C   0  0  0  0  0  0  0  0  0  0  0  0
    1.2695    0.4125    0.0000 N   0  0  0  0  0  0  0  0  0  0  0  0
    2.0542    0.1576    0.0000 N   0  0  0  0  0  0  0  0  0  0  0  0
    2.8388    0.4125    0.0000 C   0  0  0  0  0  0  0  0  0  0  0  0
    3.3237   -0.2549    0.0000 C   0  0  0  0  0  0  0  0  0  0  0  0
    2.8388   -0.9224    0.0000 N   0  0  0  0  0  0  0  0  0  0  0  0
    2.0542   -0.6674    0.0000 C   0  0  0  0  0  0  0  0  0  0  0  0
    1.2695   -0.9224    0.0000 S   0  0  0  0  0  0  0  0  0  0  0  0
    3.0937    1.1971    0.0000 C   0  0  0  0  0  0  0  0  0  0  0  0
    2.6088    1.8646    0.0000 C   0  0  0  0  0  0  0  0  0  0  0  0
    3.0937    2.5320    0.0000 C   0  0  0  0  0  0  0  0  0  0  0  0
    3.8783    2.2771    0.0000 C   0  0  0  0  0  0  0  0  0  0  0  0
    3.8783    1.4521    0.0000 S   0  0  0  0  0  0  0  0  0  0  0  0
   -1.2779   -0.9694    0.0000 C   0  0  0  0  0  0  0  0  0  0  0  0
   -1.6904   -1.6839    0.0000 C   0  0  0  0  0  0  0  0  0  0  0  0
   -2.5154   -1.6839    0.0000 C   0  0  0  0  0  0  0  0  0  0  0  0
   -2.9279   -0.9694    0.0000 O   0  0  0  0  0  0  0  0  0  0  0  0
   -2.5154   -0.2549    0.0000 C   0  0  0  0  0  0  0  0  0  0  0  0
   -1.6904   -0.2549    0.0000 C   0  0  0  0  0  0  0  0  0  0  0  0
  1  2  1  0  0  0  0
  2  3  1  0  0  0  0
  3  4  2  0  0  0  0
  4  5  1  0  0  0  0
  5  6  1  0  0  0  0
  6  7  2  0  0  0  0
  7  8  1  0  0  0  0
  8  9  2  0  0  0  0
  5  9  1  0  0  0  0
  9 10  1  0  0  0  0
  3 10  1  0  0  0  0
  6 11  1  0  0  0  0
 11 12  2  0  0  0  0
 12 13  1  0  0  0  0
 13 14  2  0  0  0  0
 14 15  1  0  0  0  0
 11 15  1  0  0  0  0
  1 16  1  0  0  0  0
 16 17  1  0  0  0  0
 17 18  1  0  0  0  0
 18 19  1  0  0  0  0
 19 20  1  0  0  0  0
 20 21  1  0  0  0  0
 16 21  1  0  0  0  0
M  END
> <COMPOUND_ID>
MMV010764

$$$$

  Mrv0541 04191616472D          

 27 30  0  0  0  0            999 V2000
   -2.2337   -2.8414    0.0000 F   0  0  0  0  0  0  0  0  0  0  0  0
   -1.8212   -2.1269    0.0000 C   0  0  0  0  0  0  0  0  0  0  0  0
   -1.1067   -2.5394    0.0000 F   0  0  0  0  0  0  0  0  0  0  0  0
   -2.5357   -1.7144    0.0000 F   0  0  0  0  0  0  0  0  0  0  0  0
   -1.4087   -1.4124    0.0000 C   0  0  0  0  0  0  0  0  0  0  0  0
   -1.8212   -0.6979    0.0000 C   0  0  0  0  0  0  0  0  0  0  0  0
   -1.4087    0.0165    0.0000 C   0  0  0  0  0  0  0  0  0  0  0  0
   -0.5837    0.0165    0.0000 C   0  0  0  0  0  0  0  0  0  0  0  0
   -0.1712   -0.6979    0.0000 C   0  0  0  0  0  0  0  0  0  0  0  0
   -0.5837   -1.4124    0.0000 C   0  0  0  0  0  0  0  0  0  0  0  0
    0.6538   -0.6979    0.0000 C   0  0  0  0  0  0  0  0  0  0  0  0
    1.1387   -0.0305    0.0000 N   0  0  0  0  0  0  0  0  0  0  0  0
    1.9233   -0.2854    0.0000 C   0  0  0  0  0  0  0  0  0  0  0  0
    2.6378    0.1271    0.0000 C   0  0  0  0  0  0  0  0  0  0  0  0
    2.6378    0.9521    0.0000 N   0  0  0  0  0  0  0  0  0  0  0  0
    1.9233    1.3646    0.0000 C   0  0  0  0  0  0  0  0  0  0  0  0
    1.9233    2.1896    0.0000 C   0  0  0  0  0  0  0  0  0  0  0  0
    1.2089    2.6021    0.0000 C   0  0  0  0  0  0  0  0  0  0  0  0
    1.2089    3.4271    0.0000 C   0  0  0  0  0  0  0  0  0  0  0  0
    1.9233    3.8396    0.0000 N   0  0  0  0  0  0  0  0  0  0  0  0
    2.6378    3.4271    0.0000 C   0  0  0  0  0  0  0  0  0  0  0  0
    2.6378    2.6021    0.0000 C   0  0  0  0  0  0  0  0  0  0  0  0
    3.3523   -0.2854    0.0000 N   0  0  0  0  0  0  0  0  0  0  0  0
    3.3523   -1.1104    0.0000 C   0  0  0  0  0  0  0  0  0  0  0  0
    2.6378   -1.5229    0.0000 C   0  0  0  0  0  0  0  0  0  0  0  0
    1.9233   -1.1104    0.0000 C   0  0  0  0  0  0  0  0  0  0  0  0
    1.1387   -1.3654    0.0000 N   0  0  0  0  0  0  0  0  0  0  0  0
  1  2  1  0  0  0  0
  2  3  1  0  0  0  0
  2  4  1  0  0  0  0
  2  5  1  0  0  0  0
  5  6  2  0  0  0  0
  6  7  1  0  0  0  0
  7  8  2  0  0  0  0
  8  9  1  0  0  0  0
  9 10  2  0  0  0  0
  5 10  1  0  0  0  0
  9 11  1  0  0  0  0
 11 12  2  0  0  0  0
 12 13  1  0  0  0  0
 13 14  2  0  0  0  0
 14 15  1  0  0  0  0
 15 16  1  0  0  0  0
 16 17  1  0  0  0  0
 17 18  2  0  0  0  0
 18 19  1  0  0  0  0
 19 20  2  0  0  0  0
 20 21  1  0  0  0  0
 21 22  2  0  0  0  0
 17 22  1  0  0  0  0
 14 23  1  0  0  0  0
 23 24  2  0  0  0  0
 24 25  1  0  0  0  0
 25 26  2  0  0  0  0
 13 26  1  0  0  0  0
 26 27  1  0  0  0  0
 11 27  1  0  0  0  0
M  END
> <COMPOUND_ID>
MMV032967

$$$$

  Mrv0541 04191616472D          

 26 28  0  0  0  0            999 V2000
   -2.1434   -1.2375    0.0000 C   0  0  0  0  0  0  0  0  0  0  0  0
   -1.4289   -1.6500    0.0000 O   0  0  0  0  0  0  0  0  0  0  0  0
   -1.4289   -2.4750    0.0000 C   0  0  0  0  0  0  0  0  0  0  0  0
   -0.7145   -2.8875    0.0000 C   0  0  0  0  0  0  0  0  0  0  0  0
   -0.7145   -3.7125    0.0000 C   0  0  0  0  0  0  0  0  0  0  0  0
   -1.4289   -4.1250    0.0000 C   0  0  0  0  0  0  0  0  0  0  0  0
   -2.1434   -3.7125    0.0000 C   0  0  0  0  0  0  0  0  0  0  0  0
   -2.1434   -2.8875    0.0000 C   0  0  0  0  0  0  0  0  0  0  0  0
   -2.8579   -2.4750    0.0000 O   0  0  0  0  0  0  0  0  0  0  0  0
    0.0000   -4.1250    0.0000 C   0  0  0  0  0  0  0  0  0  0  0  0
    0.7145   -3.7125    0.0000 C   0  0  0  0  0  0  0  0  0  0  0  0
    1.4289   -4.1250    0.0000 C   0  0  0  0  0  0  0  0  0  0  0  0
    1.4289   -4.9500    0.0000 C   0  0  0  0  0  0  0  0  0  0  0  0
    0.7145   -5.3625    0.0000 N   0  0  0  0  0  0  0  0  0  0  0  0
    0.0000   -4.9500    0.0000 C   0  0  0  0  0  0  0  0  0  0  0  0
   -0.7145   -5.3625    0.0000 N   0  0  0  0  0  0  0  0  0  0  0  0
    2.1434   -3.7125    0.0000 C   0  0  0  0  0  0  0  0  0  0  0  0
    2.1434   -2.8875    0.0000 C   0  0  0  0  0  0  0  0  0  0  0  0
    2.8579   -2.4750    0.0000 C   0  0  0  0  0  0  0  0  0  0  0  0
    3.5724   -2.8875    0.0000 C   0  0  0  0  0  0  0  0  0  0  0  0
    3.5724   -3.7125    0.0000 C   0  0  0  0  0  0  0  0  0  0  0  0
    2.8579   -4.1250    0.0000 C   0  0  0  0  0  0  0  0  0  0  0  0
    4.2868   -2.4750    0.0000 S   0  0  0  0  0  0  0  0  0  0  0  0
    5.0013   -2.0625    0.0000 O   0  0  0  0  0  0  0  0  0  0  0  0
    4.6993   -3.1895    0.0000 O   0  0  0  0  0  0  0  0  0  0  0  0
    3.8743   -1.7605    0.0000 C   0  0  0  0  0  0  0  0  0  0  0  0
  1  2  1  0  0  0  0
  2  3  1  0  0  0  0
  3  4  2  0  0  0  0
  4  5  1  0  0  0  0
  5  6  2  0  0  0  0
  6  7  1  0  0  0  0
  7  8  2  0  0  0  0
  3  8  1  0  0  0  0
  8  9  1  0  0  0  0
  5 10  1  0  0  0  0
 10 11  2  0  0  0  0
 11 12  1  0  0  0  0
 12 13  2  0  0  0  0
 13 14  1  0  0  0  0
 14 15  2  0  0  0  0
 10 15  1  0  0  0  0
 15 16  1  0  0  0  0
 12 17  1  0  0  0  0
 17 18  2  0  0  0  0
 18 19  1  0  0  0  0
 19 20  2  0  0  0  0
 20 21  1  0  0  0  0
 21 22  2  0  0  0  0
 17 22  1  0  0  0  0
 20 23  1  0  0  0  0
 23 24  2  0  0  0  0
 23 25  2  0  0  0  0
 23 26  1  0  0  0  0
M  END
> <COMPOUND_ID>
MMV010576

$$$$

  Mrv0541 04191616472D          

 24 26  0  0  0  0            999 V2000
   -2.1434   -1.2375    0.0000 N   0  0  0  0  0  0  0  0  0  0  0  0
   -1.4289   -1.6500    0.0000 C   0  0  0  0  0  0  0  0  0  0  0  0
   -0.7145   -1.2375    0.0000 O   0  0  0  0  0  0  0  0  0  0  0  0
   -1.4289   -2.4750    0.0000 C   0  0  0  0  0  0  0  0  0  0  0  0
   -0.7145   -2.8875    0.0000 C   0  0  0  0  0  0  0  0  0  0  0  0
   -0.7145   -3.7125    0.0000 C   0  0  0  0  0  0  0  0  0  0  0  0
   -1.4289   -4.1250    0.0000 C   0  0  0  0  0  0  0  0  0  0  0  0
   -2.1434   -3.7125    0.0000 C   0  0  0  0  0  0  0  0  0  0  0  0
   -2.1434   -2.8875    0.0000 C   0  0  0  0  0  0  0  0  0  0  0  0
   -1.4289   -4.9500    0.0000 C   0  0  0  0  0  0  0  0  0  0  0  0
   -0.7145   -5.3625    0.0000 N   0  0  0  0  0  0  0  0  0  0  0  0
   -0.7145   -6.1875    0.0000 C   0  0  0  0  0  0  0  0  0  0  0  0
   -1.4289   -6.6000    0.0000 C   0  0  0  0  0  0  0  0  0  0  0  0
   -2.1434   -6.1875    0.0000 N   0  0  0  0  0  0  0  0  0  0  0  0
   -2.1434   -5.3625    0.0000 C   0  0  0  0  0  0  0  0  0  0  0  0
   -2.8579   -4.9500    0.0000 N   0  0  0  0  0  0  0  0  0  0  0  0
   -0.0000   -6.6000    0.0000 C   0  0  0  0  0  0  0  0  0  0  0  0
    0.7145   -6.1875    0.0000 C   0  0  0  0  0  0  0  0  0  0  0  0
    1.4289   -6.6000    0.0000 C   0  0  0  0  0  0  0  0  0  0  0  0
    1.4289   -7.4250    0.0000 C   0  0  0  0  0  0  0  0  0  0  0  0
    0.7145   -7.8375    0.0000 C   0  0  0  0  0  0  0  0  0  0  0  0
   -0.0000   -7.4250    0.0000 C   0  0  0  0  0  0  0  0  0  0  0  0
    2.1434   -7.8375    0.0000 C   0  0  0  0  0  0  0  0  0  0  0  0
    2.8579   -8.2500    0.0000 N   0  0  0  0  0  0  0  0  0  0  0  0
  1  2  1  0  0  0  0
  2  3  2  0  0  0  0
  2  4  1  0  0  0  0
  4  5  2  0  0  0  0
  5  6  1  0  0  0  0
  6  7  2  0  0  0  0
  7  8  1  0  0  0  0
  8  9  2  0  0  0  0
  4  9  1  0  0  0  0
  7 10  1  0  0  0  0
 10 11  2  0  0  0  0
 11 12  1  0  0  0  0
 12 13  2  0  0  0  0
 13 14  1  0  0  0  0
 14 15  2  0  0  0  0
 10 15  1  0  0  0  0
 15 16  1  0  0  0  0
 12 17  1  0  0  0  0
 17 18  2  0  0  0  0
 18 19  1  0  0  0  0
 19 20  2  0  0  0  0
 20 21  1  0  0  0  0
 21 22  2  0  0  0  0
 17 22  1  0  0  0  0
 20 23  1  0  0  0  0
 23 24  3  0  0  0  0
M  END
> <COMPOUND_ID>
MMV085499

$$$$

  Mrv0541 04191616472D          

 22 24  0  0  0  0            999 V2000
    3.5724    1.2375    0.0000 O   0  0  0  0  0  0  0  0  0  0  0  0
    4.2868    0.8250    0.0000 C   0  0  0  0  0  0  0  0  0  0  0  0
    4.2868    0.0000    0.0000 C   0  0  0  0  0  0  0  0  0  0  0  0
    5.0013   -0.4125    0.0000 C   0  0  0  0  0  0  0  0  0  0  0  0
    5.0013   -1.2375    0.0000 C   0  0  0  0  0  0  0  0  0  0  0  0
    4.2868   -1.6500    0.0000 C   0  0  0  0  0  0  0  0  0  0  0  0
    3.5724   -1.2375    0.0000 C   0  0  0  0  0  0  0  0  0  0  0  0
    3.5724   -0.4125    0.0000 C   0  0  0  0  0  0  0  0  0  0  0  0
    4.2868   -2.4750    0.0000 C   0  0  0  0  0  0  0  0  0  0  0  0
    5.0013   -2.8875    0.0000 C   0  0  0  0  0  0  0  0  0  0  0  0
    5.0013   -3.7125    0.0000 N   0  0  0  0  0  0  0  0  0  0  0  0
    4.2868   -4.1250    0.0000 C   0  0  0  0  0  0  0  0  0  0  0  0
    3.5724   -3.7125    0.0000 C   0  0  0  0  0  0  0  0  0  0  0  0
    2.8579   -4.1250    0.0000 N   0  0  0  0  0  0  0  0  0  0  0  0
    2.1434   -3.7125    0.0000 C   0  0  0  0  0  0  0  0  0  0  0  0
    1.4289   -4.1250    0.0000 C   0  0  0  0  0  0  0  0  0  0  0  0
    0.7145   -3.7125    0.0000 C   0  0  0  0  0  0  0  0  0  0  0  0
    0.7145   -2.8875    0.0000 C   0  0  0  0  0  0  0  0  0  0  0  0
    1.4289   -2.4750    0.0000 C   0  0  0  0  0  0  0  0  0  0  0  0
    1.4289   -1.6500    0.0000 Cl  0  0  0  0  0  0  0  0  0  0  0  0
    2.1434   -2.8875    0.0000 C   0  0  0  0  0  0  0  0  0  0  0  0
    3.5724   -2.8875    0.0000 C   0  0  0  0  0  0  0  0  0  0  0  0
  1  2  1  0  0  0  0
  2  3  1  0  0  0  0
  3  4  2  0  0  0  0
  4  5  1  0  0  0  0
  5  6  2  0  0  0  0
  6  7  1  0  0  0  0
  7  8  2  0  0  0  0
  3  8  1  0  0  0  0
  6  9  1  0  0  0  0
  9 10  2  0  0  0  0
 10 11  1  0  0  0  0
 11 12  2  0  0  0  0
 12 13  1  0  0  0  0
 13 14  1  0  0  0  0
 14 15  1  0  0  0  0
 15 16  2  0  0  0  0
 16 17  1  0  0  0  0
 17 18  2  0  0  0  0
 18 19  1  0  0  0  0
 19 20  1  0  0  0  0
 19 21  2  0  0  0  0
 15 21  1  0  0  0  0
 13 22  2  0  0  0  0
  9 22  1  0  0  0  0
M  END
> <COMPOUND_ID>
MMV026468

$$$$

  Mrv0541 04191616472D          

 24 27  0  0  0  0            999 V2000
    3.2789    4.5375    0.0000 C   0  0  0  0  0  0  0  0  0  0  0  0
    3.2789    3.7125    0.0000 N   0  0  0  0  0  0  0  0  0  0  0  0
    3.9934    3.3000    0.0000 C   0  0  0  0  0  0  0  0  0  0  0  0
    3.9934    2.4750    0.0000 C   0  0  0  0  0  0  0  0  0  0  0  0
    3.2789    2.0625    0.0000 N   0  0  0  0  0  0  0  0  0  0  0  0
    2.5645    2.4750    0.0000 C   0  0  0  0  0  0  0  0  0  0  0  0
    2.5645    3.3000    0.0000 C   0  0  0  0  0  0  0  0  0  0  0  0
    3.2789    1.2375    0.0000 C   0  0  0  0  0  0  0  0  0  0  0  0
    3.9934    0.8250    0.0000 N   0  0  0  0  0  0  0  0  0  0  0  0
    3.9934    0.0000    0.0000 C   0  0  0  0  0  0  0  0  0  0  0  0
    3.2789   -0.4125    0.0000 C   0  0  0  0  0  0  0  0  0  0  0  0
    2.5645    0.0000    0.0000 C   0  0  0  0  0  0  0  0  0  0  0  0
    1.7798   -0.2549    0.0000 N   0  0  0  0  0  0  0  0  0  0  0  0
    1.2949    0.4125    0.0000 C   0  0  0  0  0  0  0  0  0  0  0  0
    1.7798    1.0799    0.0000 N   0  0  0  0  0  0  0  0  0  0  0  0
    2.5645    0.8250    0.0000 C   0  0  0  0  0  0  0  0  0  0  0  0
    0.4699    0.4125    0.0000 C   0  0  0  0  0  0  0  0  0  0  0  0
    0.0574   -0.3020    0.0000 C   0  0  0  0  0  0  0  0  0  0  0  0
   -0.7676   -0.3020    0.0000 C   0  0  0  0  0  0  0  0  0  0  0  0
   -1.1801    0.4125    0.0000 C   0  0  0  0  0  0  0  0  0  0  0  0
   -2.0051    0.4125    0.0000 F   0  0  0  0  0  0  0  0  0  0  0  0
   -0.7676    1.1270    0.0000 C   0  0  0  0  0  0  0  0  0  0  0  0
   -1.1801    1.8414    0.0000 F   0  0  0  0  0  0  0  0  0  0  0  0
    0.0574    1.1270    0.0000 C   0  0  0  0  0  0  0  0  0  0  0  0
  1  2  1  0  0  0  0
  2  3  1  0  0  0  0
  3  4  1  0  0  0  0
  4  5  1  0  0  0  0
  5  6  1  0  0  0  0
  6  7  1  0  0  0  0
  2  7  1  0  0  0  0
  5  8  1  0  0  0  0
  8  9  1  0  0  0  0
  9 10  2  0  0  0  0
 10 11  1  0  0  0  0
 11 12  2  0  0  0  0
 12 13  1  0  0  0  0
 13 14  2  0  0  0  0
 14 15  1  0  0  0  0
 15 16  1  0  0  0  0
  8 16  2  0  0  0  0
 12 16  1  0  0  0  0
 14 17  1  0  0  0  0
 17 18  2  0  0  0  0
 18 19  1  0  0  0  0
 19 20  2  0  0  0  0
 20 21  1  0  0  0  0
 20 22  1  0  0  0  0
 22 23  1  0  0  0  0
 22 24  2  0  0  0  0
 17 24  1  0  0  0  0
M  END
> <COMPOUND_ID>
MMV676260

$$$$

  Mrv0541 04191616472D          

 23 26  0  0  0  0            999 V2000
    3.2789    4.5375    0.0000 C   0  0  0  0  0  0  0  0  0  0  0  0
    3.2789    3.7125    0.0000 N   0  0  0  0  0  0  0  0  0  0  0  0
    3.9934    3.3000    0.0000 C   0  0  0  0  0  0  0  0  0  0  0  0
    3.9934    2.4750    0.0000 C   0  0  0  0  0  0  0  0  0  0  0  0
    3.2789    2.0625    0.0000 N   0  0  0  0  0  0  0  0  0  0  0  0
    2.5645    2.4750    0.0000 C   0  0  0  0  0  0  0  0  0  0  0  0
    2.5645    3.3000    0.0000 C   0  0  0  0  0  0  0  0  0  0  0  0
    3.2789    1.2375    0.0000 C   0  0  0  0  0  0  0  0  0  0  0  0
    3.9934    0.8250    0.0000 N   0  0  0  0  0  0  0  0  0  0  0  0
    3.9934    0.0000    0.0000 C   0  0  0  0  0  0  0  0  0  0  0  0
    3.2789   -0.4125    0.0000 C   0  0  0  0  0  0  0  0  0  0  0  0
    2.5645    0.0000    0.0000 C   0  0  0  0  0  0  0  0  0  0  0  0
    1.7798   -0.2549    0.0000 N   0  0  0  0  0  0  0  0  0  0  0  0
    1.2949    0.4125    0.0000 C   0  0  0  0  0  0  0  0  0  0  0  0
    1.7798    1.0799    0.0000 C   0  0  0  0  0  0  0  0  0  0  0  0
    2.5645    0.8250    0.0000 C   0  0  0  0  0  0  0  0  0  0  0  0
    0.4699    0.4125    0.0000 C   0  0  0  0  0  0  0  0  0  0  0  0
    0.0574   -0.3020    0.0000 C   0  0  0  0  0  0  0  0  0  0  0  0
   -0.7676   -0.3020    0.0000 C   0  0  0  0  0  0  0  0  0  0  0  0
   -1.1801    0.4125    0.0000 C   0  0  0  0  0  0  0  0  0  0  0  0
   -0.7676    1.1270    0.0000 C   0  0  0  0  0  0  0  0  0  0  0  0
   -1.1801    1.8414    0.0000 F   0  0  0  0  0  0  0  0  0  0  0  0
    0.0574    1.1270    0.0000 C   0  0  0  0  0  0  0  0  0  0  0  0
  1  2  1  0  0  0  0
  2  3  1  0  0  0  0
  3  4  1  0  0  0  0
  4  5  1  0  0  0  0
  5  6  1  0  0  0  0
  6  7  1  0  0  0  0
  2  7  1  0  0  0  0
  5  8  1  0  0  0  0
  8  9  1  0  0  0  0
  9 10  2  0  0  0  0
 10 11  1  0  0  0  0
 11 12  2  0  0  0  0
 12 13  1  0  0  0  0
 13 14  1  0  0  0  0
 14 15  2  0  0  0  0
 15 16  1  0  0  0  0
  8 16  2  0  0  0  0
 12 16  1  0  0  0  0
 14 17  1  0  0  0  0
 17 18  2  0  0  0  0
 18 19  1  0  0  0  0
 19 20  2  0  0  0  0
 20 21  1  0  0  0  0
 21 22  1  0  0  0  0
 21 23  2  0  0  0  0
 17 23  1  0  0  0  0
M  END
> <COMPOUND_ID>
MMV393144

$$$$

  Mrv0541 04191616472D          

 24 27  0  0  0  0            999 V2000
   -2.6462   -2.1269    0.0000 C   0  0  0  0  0  0  0  0  0  0  0  0
   -1.8212   -2.1269    0.0000 O   0  0  0  0  0  0  0  0  0  0  0  0
   -1.4087   -1.4124    0.0000 C   0  0  0  0  0  0  0  0  0  0  0  0
   -1.8212   -0.6979    0.0000 C   0  0  0  0  0  0  0  0  0  0  0  0
   -1.4087    0.0165    0.0000 C   0  0  0  0  0  0  0  0  0  0  0  0
   -0.5837    0.0165    0.0000 C   0  0  0  0  0  0  0  0  0  0  0  0
   -0.1712   -0.6979    0.0000 C   0  0  0  0  0  0  0  0  0  0  0  0
   -0.5837   -1.4124    0.0000 C   0  0  0  0  0  0  0  0  0  0  0  0
    0.6538   -0.6979    0.0000 C   0  0  0  0  0  0  0  0  0  0  0  0
    1.1387   -0.0305    0.0000 C   0  0  0  0  0  0  0  0  0  0  0  0
    1.9233   -0.2854    0.0000 C   0  0  0  0  0  0  0  0  0  0  0  0
    2.6378    0.1271    0.0000 C   0  0  0  0  0  0  0  0  0  0  0  0
    2.6378    0.9521    0.0000 N   0  0  0  0  0  0  0  0  0  0  0  0
    3.3523    1.3646    0.0000 C   0  0  0  0  0  0  0  0  0  0  0  0
    3.3523    2.1896    0.0000 C   0  0  0  0  0  0  0  0  0  0  0  0
    4.0668    2.6021    0.0000 C   0  0  0  0  0  0  0  0  0  0  0  0
    4.7812    2.1896    0.0000 C   0  0  0  0  0  0  0  0  0  0  0  0
    4.7812    1.3646    0.0000 N   0  0  0  0  0  0  0  0  0  0  0  0
    4.0668    0.9521    0.0000 C   0  0  0  0  0  0  0  0  0  0  0  0
    3.3523   -0.2854    0.0000 N   0  0  0  0  0  0  0  0  0  0  0  0
    3.3523   -1.1104    0.0000 C   0  0  0  0  0  0  0  0  0  0  0  0
    2.6378   -1.5229    0.0000 C   0  0  0  0  0  0  0  0  0  0  0  0
    1.9233   -1.1104    0.0000 C   0  0  0  0  0  0  0  0  0  0  0  0
    1.1387   -1.3654    0.0000 N   0  0  0  0  0  0  0  0  0  0  0  0
  1  2  1  0  0  0  0
  2  3  1  0  0  0  0
  3  4  2  0  0  0  0
  4  5  1  0  0  0  0
  5  6  2  0  0  0  0
  6  7  1  0  0  0  0
  7  8  2  0  0  0  0
  3  8  1  0  0  0  0
  7  9  1  0  0  0  0
  9 10  2  0  0  0  0
 10 11  1  0  0  0  0
 11 12  2  0  0  0  0
 12 13  1  0  0  0  0
 13 14  1  0  0  0  0
 14 15  2  0  0  0  0
 15 16  1  0  0  0  0
 16 17  2  0  0  0  0
 17 18  1  0  0  0  0
 18 19  2  0  0  0  0
 14 19  1  0  0  0  0
 12 20  1  0  0  0  0
 20 21  2  0  0  0  0
 21 22  1  0  0  0  0
 22 23  2  0  0  0  0
 11 23  1  0  0  0  0
 23 24  1  0  0  0  0
  9 24  1  0  0  0  0
M  END
> <COMPOUND_ID>
MMV392832

$$$$

  Mrv0541 04191616472D          

 26 29  0  0  0  0            999 V2000
    5.0013   -0.4125    0.0000 Cl  0  0  0  0  0  0  0  0  0  0  0  0
    5.0013   -1.2375    0.0000 C   0  0  0  0  0  0  0  0  0  0  0  0
    5.7158   -1.6500    0.0000 C   0  0  0  0  0  0  0  0  0  0  0  0
    5.7158   -2.4750    0.0000 C   0  0  0  0  0  0  0  0  0  0  0  0
    5.0013   -2.8875    0.0000 C   0  0  0  0  0  0  0  0  0  0  0  0
    4.2868   -2.4750    0.0000 C   0  0  0  0  0  0  0  0  0  0  0  0
    4.2868   -1.6500    0.0000 C   0  0  0  0  0  0  0  0  0  0  0  0
    3.5724   -2.8875    0.0000 C   0  0  0  0  0  0  0  0  0  0  0  0
    2.8579   -2.4750    0.0000 C   0  0  0  0  0  0  0  0  0  0  0  0
    2.1434   -2.8875    0.0000 C   0  0  0  0  0  0  0  0  0  0  0  0
    1.4289   -2.4750    0.0000 C   0  0  0  0  0  0  0  0  0  0  0  0
    1.4289   -1.6500    0.0000 C   0  0  0  0  0  0  0  0  0  0  0  0
    0.7145   -1.2375    0.0000 C   0  0  0  0  0  0  0  0  0  0  0  0
    0.7145   -0.4125    0.0000 N   0  0  0  0  0  0  0  0  0  0  0  0
    0.0000    0.0000    0.0000 C   0  0  0  0  0  0  0  0  0  0  0  0
    0.0000    0.8250    0.0000 C   0  0  0  0  0  0  0  0  0  0  0  0
    0.7145    1.2375    0.0000 N   0  0  0  0  0  0  0  0  0  0  0  0
    1.4289    0.8250    0.0000 C   0  0  0  0  0  0  0  0  0  0  0  0
    1.4289    0.0000    0.0000 C   0  0  0  0  0  0  0  0  0  0  0  0
    2.1434   -1.2375    0.0000 C   0  0  0  0  0  0  0  0  0  0  0  0
    2.8579   -1.6500    0.0000 C   0  0  0  0  0  0  0  0  0  0  0  0
    3.5724   -3.7125    0.0000 N   0  0  0  0  0  0  0  0  0  0  0  0
    4.2398   -4.1974    0.0000 C   0  0  0  0  0  0  0  0  0  0  0  0
    3.9849   -4.9820    0.0000 C   0  0  0  0  0  0  0  0  0  0  0  0
    3.1599   -4.9820    0.0000 N   0  0  0  0  0  0  0  0  0  0  0  0
    2.9049   -4.1974    0.0000 C   0  0  0  0  0  0  0  0  0  0  0  0
  1  2  1  0  0  0  0
  2  3  2  0  0  0  0
  3  4  1  0  0  0  0
  4  5  2  0  0  0  0
  5  6  1  0  0  0  0
  6  7  2  0  0  0  0
  2  7  1  0  0  0  0
  6  8  1  0  0  0  0
  8  9  1  0  0  0  0
  9 10  2  0  0  0  0
 10 11  1  0  0  0  0
 11 12  2  0  0  0  0
 12 13  1  0  0  0  0
 13 14  1  0  0  0  0
 14 15  1  0  0  0  0
 15 16  1  0  0  0  0
 16 17  1  0  0  0  0
 17 18  1  0  0  0  0
 18 19  1  0  0  0  0
 14 19  1  0  0  0  0
 12 20  1  0  0  0  0
 20 21  2  0  0  0  0
  9 21  1  0  0  0  0
  8 22  1  0  0  0  0
 22 23  1  0  0  0  0
 23 24  2  0  0  0  0
 24 25  1  0  0  0  0
 25 26  2  0  0  0  0
 22 26  1  0  0  0  0
M  END
> <COMPOUND_ID>
MMV663250

$$$$

  Mrv0541 04191616472D          

 25 28  0  0  0  0            999 V2000
   -0.7145   -4.5375    0.0000 N   0  0  0  0  0  0  0  0  0  0  0  0
   -0.7145   -3.7125    0.0000 S   0  0  0  0  0  0  0  0  0  0  0  0
    0.1105   -3.7125    0.0000 O   0  0  0  0  0  0  0  0  0  0  0  0
   -1.5395   -3.7125    0.0000 O   0  0  0  0  0  0  0  0  0  0  0  0
   -0.7145   -2.8875    0.0000 C   0  0  0  0  0  0  0  0  0  0  0  0
   -1.4289   -2.4750    0.0000 C   0  0  0  0  0  0  0  0  0  0  0  0
   -1.4289   -1.6500    0.0000 N   0  0  0  0  0  0  0  0  0  0  0  0
   -0.7145   -1.2375    0.0000 C   0  0  0  0  0  0  0  0  0  0  0  0
    0.0000   -1.6500    0.0000 C   0  0  0  0  0  0  0  0  0  0  0  0
    0.0000   -2.4750    0.0000 C   0  0  0  0  0  0  0  0  0  0  0  0
    0.7145   -1.2375    0.0000 C   0  0  0  0  0  0  0  0  0  0  0  0
    0.7145   -0.4125    0.0000 C   0  0  0  0  0  0  0  0  0  0  0  0
    1.4289    0.0000    0.0000 C   0  0  0  0  0  0  0  0  0  0  0  0
    2.1434   -0.4125    0.0000 C   0  0  0  0  0  0  0  0  0  0  0  0
    2.8579    0.0000    0.0000 N   0  0  0  0  0  0  0  0  0  0  0  0
    3.5724   -0.4125    0.0000 C   0  0  0  0  0  0  0  0  0  0  0  0
    3.5724   -1.2375    0.0000 C   0  0  0  0  0  0  0  0  0  0  0  0
    2.8579   -1.6500    0.0000 C   0  0  0  0  0  0  0  0  0  0  0  0
    2.8579   -2.4750    0.0000 C   0  0  0  0  0  0  0  0  0  0  0  0
    3.5253   -2.9599    0.0000 C   0  0  0  0  0  0  0  0  0  0  0  0
    3.2704   -3.7445    0.0000 N   0  0  0  0  0  0  0  0  0  0  0  0
    2.4454   -3.7445    0.0000 N   0  0  0  0  0  0  0  0  0  0  0  0
    2.1904   -2.9599    0.0000 C   0  0  0  0  0  0  0  0  0  0  0  0
    2.1434   -1.2375    0.0000 C   0  0  0  0  0  0  0  0  0  0  0  0
    1.4289   -1.6500    0.0000 N   0  0  0  0  0  0  0  0  0  0  0  0
  1  2  1  0  0  0  0
  2  3  2  0  0  0  0
  2  4  2  0  0  0  0
  2  5  1  0  0  0  0
  5  6  2  0  0  0  0
  6  7  1  0  0  0  0
  7  8  2  0  0  0  0
  8  9  1  0  0  0  0
  9 10  2  0  0  0  0
  5 10  1  0  0  0  0
  9 11  1  0  0  0  0
 11 12  2  0  0  0  0
 12 13  1  0  0  0  0
 13 14  2  0  0  0  0
 14 15  1  0  0  0  0
 15 16  2  0  0  0  0
 16 17  1  0  0  0  0
 17 18  2  0  0  0  0
 18 19  1  0  0  0  0
 19 20  1  0  0  0  0
 20 21  2  0  0  0  0
 21 22  1  0  0  0  0
 22 23  1  0  0  0  0
 19 23  2  0  0  0  0
 18 24  1  0  0  0  0
 14 24  1  0  0  0  0
 24 25  2  0  0  0  0
 11 25  1  0  0  0  0
M  END
> <COMPOUND_ID>
MMV024101

$$$$

  Mrv0541 04191616472D          

 23 25  0  0  0  0            999 V2000
    4.2868   -2.4750    0.0000 C   0  0  0  0  0  0  0  0  0  0  0  0
    5.0013   -2.8875    0.0000 C   0  0  0  0  0  0  0  0  0  0  0  0
    5.7158   -2.4750    0.0000 C   0  0  0  0  0  0  0  0  0  0  0  0
    6.4302   -2.8875    0.0000 N   0  0  0  0  0  0  0  0  0  0  0  0
    7.1447   -2.4750    0.0000 C   0  0  0  0  0  0  0  0  0  0  0  0
    7.1447   -1.6500    0.0000 O   0  0  0  0  0  0  0  0  0  0  0  0
    7.8592   -2.8875    0.0000 N   0  0  0  0  0  0  0  0  0  0  0  0
    8.5737   -2.4750    0.0000 C   0  0  0  0  0  0  0  0  0  0  0  0
    9.2881   -2.8875    0.0000 C   0  0  0  0  0  0  0  0  0  0  0  0
    9.2881   -3.7125    0.0000 C   0  0  0  0  0  0  0  0  0  0  0  0
    8.5737   -4.1250    0.0000 C   0  0  0  0  0  0  0  0  0  0  0  0
    7.8592   -3.7125    0.0000 C   0  0  0  0  0  0  0  0  0  0  0  0
   10.0026   -3.3000    0.0000 C   0  0  0  0  0  0  0  0  0  0  0  0
   10.7171   -3.7125    0.0000 C   0  0  0  0  0  0  0  0  0  0  0  0
   11.4315   -3.3000    0.0000 O   0  0  0  0  0  0  0  0  0  0  0  0
   10.7171   -4.5375    0.0000 C   0  0  0  0  0  0  0  0  0  0  0  0
   11.4315   -4.9500    0.0000 C   0  0  0  0  0  0  0  0  0  0  0  0
   11.4315   -5.7750    0.0000 C   0  0  0  0  0  0  0  0  0  0  0  0
   12.1460   -6.1875    0.0000 C   0  0  0  0  0  0  0  0  0  0  0  0
   10.7171   -6.1875    0.0000 C   0  0  0  0  0  0  0  0  0  0  0  0
   10.0026   -5.7750    0.0000 C   0  0  0  0  0  0  0  0  0  0  0  0
   10.0026   -4.9500    0.0000 C   0  0  0  0  0  0  0  0  0  0  0  0
    9.2881   -4.5375    0.0000 O   0  0  0  0  0  0  0  0  0  0  0  0
  1  2  1  0  0  0  0
  2  3  1  0  0  0  0
  3  4  1  0  0  0  0
  4  5  1  0  0  0  0
  5  6  2  0  0  0  0
  5  7  1  0  0  0  0
  7  8  1  0  0  0  0
  8  9  1  0  0  0  0
  9 10  1  0  0  0  0
 10 11  1  0  0  0  0
 11 12  1  0  0  0  0
  7 12  1  0  0  0  0
 10 13  1  0  0  0  0
 13 14  1  0  0  0  0
 14 15  2  0  0  0  0
 14 16  1  0  0  0  0
 16 17  2  0  0  0  0
 17 18  1  0  0  0  0
 18 19  1  0  0  0  0
 18 20  2  0  0  0  0
 20 21  1  0  0  0  0
 21 22  2  0  0  0  0
 16 22  1  0  0  0  0
 22 23  1  0  0  0  0
 10 23  1  0  0  0  0
M  END
> <COMPOUND_ID>
MMV085230

$$$$

  Mrv0541 04191616472D          

 32 35  0  0  0  0            999 V2000
    2.0367    0.3509    0.0000 C   0  0  0  0  0  0  0  0  0  0  0  0
    2.0367   -0.4741    0.0000 C   0  0  0  0  0  0  0  0  0  0  0  0
    1.2117   -0.4741    0.0000 C   0  0  0  0  0  0  0  0  0  0  0  0
    2.8617   -0.4741    0.0000 C   0  0  0  0  0  0  0  0  0  0  0  0
    2.0367   -1.2991    0.0000 C   0  0  0  0  0  0  0  0  0  0  0  0
    2.7041   -1.7840    0.0000 C   0  0  0  0  0  0  0  0  0  0  0  0
    2.4492   -2.5687    0.0000 C   0  0  0  0  0  0  0  0  0  0  0  0
    2.9341   -3.2361    0.0000 C   0  0  0  0  0  0  0  0  0  0  0  0
    2.5986   -3.9898    0.0000 O   0  0  0  0  0  0  0  0  0  0  0  0
    3.7546   -3.1499    0.0000 N   0  0  0  0  0  0  0  0  0  0  0  0
    4.0902   -2.3962    0.0000 C   0  0  0  0  0  0  0  0  0  0  0  0
    4.9106   -2.3099    0.0000 C   0  0  0  0  0  0  0  0  0  0  0  0
    5.3956   -2.9774    0.0000 N   0  0  0  0  0  0  0  0  0  0  0  0
    5.0600   -3.7311    0.0000 C   0  0  0  0  0  0  0  0  0  0  0  0
    4.2395   -3.8173    0.0000 C   0  0  0  0  0  0  0  0  0  0  0  0
    6.2161   -2.8911    0.0000 C   0  0  0  0  0  0  0  0  0  0  0  0
    6.5516   -2.1375    0.0000 N   0  0  0  0  0  0  0  0  0  0  0  0
    7.3721   -2.0512    0.0000 C   0  0  0  0  0  0  0  0  0  0  0  0
    7.8570   -2.7187    0.0000 C   0  0  0  0  0  0  0  0  0  0  0  0
    7.5215   -3.4723    0.0000 N   0  0  0  0  0  0  0  0  0  0  0  0
    6.7010   -3.5586    0.0000 C   0  0  0  0  0  0  0  0  0  0  0  0
    6.3654   -4.3123    0.0000 C   0  0  0  0  0  0  0  0  0  0  0  0
    6.0299   -5.0659    0.0000 N   0  0  0  0  0  0  0  0  0  0  0  0
    1.6242   -2.5687    0.0000 N   0  0  0  0  0  0  0  0  0  0  0  0
    1.1393   -3.2361    0.0000 C   0  0  0  0  0  0  0  0  0  0  0  0
    0.3188   -3.1499    0.0000 C   0  0  0  0  0  0  0  0  0  0  0  0
   -0.1661   -3.8173    0.0000 C   0  0  0  0  0  0  0  0  0  0  0  0
   -0.9866   -3.7311    0.0000 C   0  0  0  0  0  0  0  0  0  0  0  0
   -1.3222   -2.9774    0.0000 C   0  0  0  0  0  0  0  0  0  0  0  0
   -0.8372   -2.3099    0.0000 C   0  0  0  0  0  0  0  0  0  0  0  0
   -0.0168   -2.3962    0.0000 C   0  0  0  0  0  0  0  0  0  0  0  0
    1.3693   -1.7840    0.0000 N   0  0  0  0  0  0  0  0  0  0  0  0
  1  2  1  0  0  0  0
  2  3  1  0  0  0  0
  2  4  1  0  0  0  0
  2  5  1  0  0  0  0
  5  6  1  0  0  0  0
  6  7  2  0  0  0  0
  7  8  1  0  0  0  0
  8  9  2  0  0  0  0
  8 10  1  0  0  0  0
 10 11  1  0  0  0  0
 11 12  1  0  0  0  0
 12 13  1  0  0  0  0
 13 14  1  0  0  0  0
 14 15  1  0  0  0  0
 10 15  1  0  0  0  0
 13 16  1  0  0  0  0
 16 17  2  0  0  0  0
 17 18  1  0  0  0  0
 18 19  2  0  0  0  0
 19 20  1  0  0  0  0
 20 21  2  0  0  0  0
 16 21  1  0  0  0  0
 21 22  1  0  0  0  0
 22 23  3  0  0  0  0
  7 24  1  0  0  0  0
 24 25  1  0  0  0  0
 25 26  1  0  0  0  0
 26 27  2  0  0  0  0
 27 28  1  0  0  0  0
 28 29  2  0  0  0  0
 29 30  1  0  0  0  0
 30 31  2  0  0  0  0
 26 31  1  0  0  0  0
 24 32  1  0  0  0  0
  5 32  2  0  0  0  0
M  END
> <COMPOUND_ID>
MMV023949

$$$$

  Mrv0541 04191616472D          

 24 26  0  0  0  0            999 V2000
    1.2853   -4.5915    0.0000 C   0  0  0  0  0  0  0  0  0  0  0  0
    1.6208   -3.8378    0.0000 C   0  0  0  0  0  0  0  0  0  0  0  0
    2.3745   -4.1733    0.0000 C   0  0  0  0  0  0  0  0  0  0  0  0
    0.8672   -3.5022    0.0000 C   0  0  0  0  0  0  0  0  0  0  0  0
    1.9564   -3.0841    0.0000 C   0  0  0  0  0  0  0  0  0  0  0  0
    1.4715   -2.4167    0.0000 N   0  0  0  0  0  0  0  0  0  0  0  0
    0.6465   -2.4167    0.0000 C   0  0  0  0  0  0  0  0  0  0  0  0
    0.3915   -1.6320    0.0000 N   0  0  0  0  0  0  0  0  0  0  0  0
    1.0590   -1.1471    0.0000 C   0  0  0  0  0  0  0  0  0  0  0  0
    1.7264   -1.6320    0.0000 C   0  0  0  0  0  0  0  0  0  0  0  0
    2.5110   -1.3771    0.0000 O   0  0  0  0  0  0  0  0  0  0  0  0
    0.4517   -0.5887    0.0000 C   0  0  0  0  0  0  0  0  0  0  0  0
   -0.3355   -0.8354    0.0000 C   0  0  0  0  0  0  0  0  0  0  0  0
   -0.9428   -0.2770    0.0000 C   0  0  0  0  0  0  0  0  0  0  0  0
   -0.7629    0.5281    0.0000 C   0  0  0  0  0  0  0  0  0  0  0  0
    0.0244    0.7749    0.0000 C   0  0  0  0  0  0  0  0  0  0  0  0
    0.6317    0.2164    0.0000 C   0  0  0  0  0  0  0  0  0  0  0  0
    1.4640   -0.4284    0.0000 C   0  0  0  0  0  0  0  0  0  0  0  0
    1.0440    0.2817    0.0000 C   0  0  0  0  0  0  0  0  0  0  0  0
    1.4490    1.0005    0.0000 C   0  0  0  0  0  0  0  0  0  0  0  0
    2.2740    1.0091    0.0000 C   0  0  0  0  0  0  0  0  0  0  0  0
    2.6939    0.2990    0.0000 C   0  0  0  0  0  0  0  0  0  0  0  0
    2.2889   -0.4197    0.0000 C   0  0  0  0  0  0  0  0  0  0  0  0
    0.1616   -3.0841    0.0000 N   0  0  0  0  0  0  0  0  0  0  0  0
  1  2  1  0  0  0  0
  2  3  1  0  0  0  0
  2  4  1  0  0  0  0
  2  5  1  0  0  0  0
  5  6  1  0  0  0  0
  6  7  1  0  0  0  0
  7  8  2  0  0  0  0
  8  9  1  0  0  0  0
  9 10  1  0  0  0  0
  6 10  1  0  0  0  0
 10 11  2  0  0  0  0
  9 12  1  0  0  0  0
 12 13  2  0  0  0  0
 13 14  1  0  0  0  0
 14 15  2  0  0  0  0
 15 16  1  0  0  0  0
 16 17  2  0  0  0  0
 12 17  1  0  0  0  0
  9 18  1  0  0  0  0
 18 19  2  0  0  0  0
 19 20  1  0  0  0  0
 20 21  2  0  0  0  0
 21 22  1  0  0  0  0
 22 23  2  0  0  0  0
 18 23  1  0  0  0  0
  7 24  1  0  0  0  0
M  END
> <COMPOUND_ID>
MMV026550

$$$$

  Mrv0541 04191616472D          

 18 20  0  0  0  0            999 V2000
    1.4289   -2.4750    0.0000 N   0  0  0  0  0  0  0  0  0  0  0  0
    1.4289   -1.6500    0.0000 C   0  0  0  0  0  0  0  0  0  0  0  0
    0.7145   -1.2375    0.0000 N   0  0  0  0  0  0  0  0  0  0  0  0
    0.7145   -0.4125    0.0000 C   0  0  0  0  0  0  0  0  0  0  0  0
    1.4289    0.0000    0.0000 C   0  0  0  0  0  0  0  0  0  0  0  0
    2.1434   -0.4125    0.0000 C   0  0  0  0  0  0  0  0  0  0  0  0
    2.8579    0.0000    0.0000 C   0  0  0  0  0  0  0  0  0  0  0  0
    3.5724   -0.4125    0.0000 C   0  0  0  0  0  0  0  0  0  0  0  0
    3.5724   -1.2375    0.0000 C   0  0  0  0  0  0  0  0  0  0  0  0
    4.2868   -1.6500    0.0000 O   0  0  0  0  0  0  0  0  0  0  0  0
    4.2868   -2.4750    0.0000 C   0  0  0  0  0  0  0  0  0  0  0  0
    5.0013   -2.8875    0.0000 C   0  0  0  0  0  0  0  0  0  0  0  0
    5.0013   -3.7125    0.0000 C   0  0  0  0  0  0  0  0  0  0  0  0
    4.2868   -4.1250    0.0000 N   0  0  0  0  0  0  0  0  0  0  0  0
    3.5724   -3.7125    0.0000 C   0  0  0  0  0  0  0  0  0  0  0  0
    3.5724   -2.8875    0.0000 C   0  0  0  0  0  0  0  0  0  0  0  0
    2.8579   -1.6500    0.0000 C   0  0  0  0  0  0  0  0  0  0  0  0
    2.1434   -1.2375    0.0000 C   0  0  0  0  0  0  0  0  0  0  0  0
  1  2  1  0  0  0  0
  2  3  1  0  0  0  0
  3  4  2  0  0  0  0
  4  5  1  0  0  0  0
  5  6  2  0  0  0  0
  6  7  1  0  0  0  0
  7  8  2  0  0  0  0
  8  9  1  0  0  0  0
  9 10  1  0  0  0  0
 10 11  1  0  0  0  0
 11 12  2  0  0  0  0
 12 13  1  0  0  0  0
 13 14  2  0  0  0  0
 14 15  1  0  0  0  0
 15 16  2  0  0  0  0
 11 16  1  0  0  0  0
  9 17  2  0  0  0  0
 17 18  1  0  0  0  0
  2 18  2  0  0  0  0
  6 18  1  0  0  0  0
M  END
> <COMPOUND_ID>
MMV026313

$$$$

  Mrv0541 04191616472D          

 26 28  0  0  1  0            999 V2000
   -0.7145   -3.7125    0.0000 C   0  0  0  0  0  0  0  0  0  0  0  0
    0.0000   -4.1250    0.0000 C   0  0  1  0  0  0  0  0  0  0  0  0
    0.0000   -4.9500    0.0000 N   0  0  0  0  0  0  0  0  0  0  0  0
    0.7145   -5.3625    0.0000 C   0  0  0  0  0  0  0  0  0  0  0  0
    0.7145   -6.1875    0.0000 C   0  0  0  0  0  0  0  0  0  0  0  0
    0.0000   -6.6000    0.0000 C   0  0  0  0  0  0  0  0  0  0  0  0
   -0.7145   -6.1875    0.0000 C   0  0  0  0  0  0  0  0  0  0  0  0
   -0.7145   -5.3625    0.0000 C   0  0  1  0  0  0  0  0  0  0  0  0
   -1.4289   -4.9500    0.0000 C   0  0  0  0  0  0  0  0  0  0  0  0
   -2.1434   -5.3625    0.0000 C   0  0  0  0  0  0  0  0  0  0  0  0
   -2.8579   -4.9500    0.0000 C   0  0  0  0  0  0  0  0  0  0  0  0
   -2.8579   -4.1250    0.0000 C   0  0  0  0  0  0  0  0  0  0  0  0
   -3.5724   -3.7125    0.0000 O   0  0  0  0  0  0  0  0  0  0  0  0
   -3.5724   -2.8875    0.0000 C   0  0  0  0  0  0  0  0  0  0  0  0
   -4.2868   -2.4750    0.0000 C   0  0  0  0  0  0  0  0  0  0  0  0
   -5.0013   -2.8875    0.0000 C   0  0  0  0  0  0  0  0  0  0  0  0
   -5.7158   -2.4750    0.0000 C   0  0  0  0  0  0  0  0  0  0  0  0
   -5.7158   -1.6500    0.0000 C   0  0  0  0  0  0  0  0  0  0  0  0
   -5.0013   -1.2375    0.0000 C   0  0  0  0  0  0  0  0  0  0  0  0
   -5.0013   -0.4125    0.0000 F   0  0  0  0  0  0  0  0  0  0  0  0
   -4.2868   -1.6500    0.0000 C   0  0  0  0  0  0  0  0  0  0  0  0
   -2.1434   -3.7125    0.0000 C   0  0  0  0  0  0  0  0  0  0  0  0
   -1.4289   -4.1250    0.0000 C   0  0  0  0  0  0  0  0  0  0  0  0
    0.7145   -3.7125    0.0000 C   0  0  0  0  0  0  0  0  0  0  0  0
    0.7145   -2.8875    0.0000 O   0  0  0  0  0  0  0  0  0  0  0  0
    1.4289   -4.1250    0.0000 N   0  0  0  0  0  0  0  0  0  0  0  0
  2  1  1  6  0  0  0
  2  3  1  0  0  0  0
  3  4  1  0  0  0  0
  4  5  1  0  0  0  0
  5  6  1  0  0  0  0
  6  7  1  0  0  0  0
  7  8  1  0  0  0  0
  3  8  1  0  0  0  0
  8  9  1  1  0  0  0
  9 10  2  0  0  0  0
 10 11  1  0  0  0  0
 11 12  2  0  0  0  0
 12 13  1  0  0  0  0
 13 14  1  0  0  0  0
 14 15  1  0  0  0  0
 15 16  2  0  0  0  0
 16 17  1  0  0  0  0
 17 18  2  0  0  0  0
 18 19  1  0  0  0  0
 19 20  1  0  0  0  0
 19 21  2  0  0  0  0
 15 21  1  0  0  0  0
 12 22  1  0  0  0  0
 22 23  2  0  0  0  0
  9 23  1  0  0  0  0
  2 24  1  0  0  0  0
 24 25  2  0  0  0  0
 24 26  1  0  0  0  0
M  END
> <COMPOUND_ID>
MMV676269

$$$$

  Mrv0541 04191616472D          

 26 28  0  0  1  0            999 V2000
   -0.7145   -3.7125    0.0000 C   0  0  0  0  0  0  0  0  0  0  0  0
    0.0000   -4.1250    0.0000 C   0  0  1  0  0  0  0  0  0  0  0  0
    0.0000   -4.9500    0.0000 N   0  0  0  0  0  0  0  0  0  0  0  0
    0.7145   -5.3625    0.0000 C   0  0  0  0  0  0  0  0  0  0  0  0
    0.7145   -6.1875    0.0000 C   0  0  0  0  0  0  0  0  0  0  0  0
    0.0000   -6.6000    0.0000 C   0  0  0  0  0  0  0  0  0  0  0  0
   -0.7145   -6.1875    0.0000 C   0  0  0  0  0  0  0  0  0  0  0  0
   -0.7145   -5.3625    0.0000 C   0  0  2  0  0  0  0  0  0  0  0  0
   -1.4289   -4.9500    0.0000 C   0  0  0  0  0  0  0  0  0  0  0  0
   -2.1434   -5.3625    0.0000 C   0  0  0  0  0  0  0  0  0  0  0  0
   -2.8579   -4.9500    0.0000 C   0  0  0  0  0  0  0  0  0  0  0  0
   -2.8579   -4.1250    0.0000 C   0  0  0  0  0  0  0  0  0  0  0  0
   -3.5724   -3.7125    0.0000 O   0  0  0  0  0  0  0  0  0  0  0  0
   -3.5724   -2.8875    0.0000 C   0  0  0  0  0  0  0  0  0  0  0  0
   -4.2868   -2.4750    0.0000 C   0  0  0  0  0  0  0  0  0  0  0  0
   -5.0013   -2.8875    0.0000 C   0  0  0  0  0  0  0  0  0  0  0  0
   -5.7158   -2.4750    0.0000 C   0  0  0  0  0  0  0  0  0  0  0  0
   -5.7158   -1.6500    0.0000 C   0  0  0  0  0  0  0  0  0  0  0  0
   -5.0013   -1.2375    0.0000 C   0  0  0  0  0  0  0  0  0  0  0  0
   -5.0013   -0.4125    0.0000 F   0  0  0  0  0  0  0  0  0  0  0  0
   -4.2868   -1.6500    0.0000 C   0  0  0  0  0  0  0  0  0  0  0  0
   -2.1434   -3.7125    0.0000 C   0  0  0  0  0  0  0  0  0  0  0  0
   -1.4289   -4.1250    0.0000 C   0  0  0  0  0  0  0  0  0  0  0  0
    0.7145   -3.7125    0.0000 C   0  0  0  0  0  0  0  0  0  0  0  0
    0.7145   -2.8875    0.0000 O   0  0  0  0  0  0  0  0  0  0  0  0
    1.4289   -4.1250    0.0000 N   0  0  0  0  0  0  0  0  0  0  0  0
  2  1  1  6  0  0  0
  2  3  1  0  0  0  0
  3  4  1  0  0  0  0
  4  5  1  0  0  0  0
  5  6  1  0  0  0  0
  6  7  1  0  0  0  0
  7  8  1  0  0  0  0
  3  8  1  0  0  0  0
  8  9  1  6  0  0  0
  9 10  2  0  0  0  0
 10 11  1  0  0  0  0
 11 12  2  0  0  0  0
 12 13  1  0  0  0  0
 13 14  1  0  0  0  0
 14 15  1  0  0  0  0
 15 16  2  0  0  0  0
 16 17  1  0  0  0  0
 17 18  2  0  0  0  0
 18 19  1  0  0  0  0
 19 20  1  0  0  0  0
 19 21  2  0  0  0  0
 15 21  1  0  0  0  0
 12 22  1  0  0  0  0
 22 23  2  0  0  0  0
  9 23  1  0  0  0  0
  2 24  1  0  0  0  0
 24 25  2  0  0  0  0
 24 26  1  0  0  0  0
M  END
> <COMPOUND_ID>
MMV676270

$$$$

  Mrv0541 04191616472D          

 30 33  0  0  0  0            999 V2000
    0.5569   -6.2255    0.0000 C   0  0  0  0  0  0  0  0  0  0  0  0
    1.2714   -6.6380    0.0000 N   0  0  0  0  0  0  0  0  0  0  0  0
    1.2714   -7.4630    0.0000 C   0  0  0  0  0  0  0  0  0  0  0  0
    1.9858   -6.2255    0.0000 C   0  0  0  0  0  0  0  0  0  0  0  0
    2.7003   -6.6380    0.0000 C   0  0  0  0  0  0  0  0  0  0  0  0
    3.4148   -6.2255    0.0000 N   0  0  0  0  0  0  0  0  0  0  0  0
    4.1292   -6.6380    0.0000 C   0  0  0  0  0  0  0  0  0  0  0  0
    4.1292   -7.4630    0.0000 O   0  0  0  0  0  0  0  0  0  0  0  0
    4.8437   -6.2255    0.0000 N   0  0  0  0  0  0  0  0  0  0  0  0
    4.7821   -5.4028    0.0000 C   0  0  0  0  0  0  0  0  0  0  0  0
    5.3868   -4.8416    0.0000 C   0  0  0  0  0  0  0  0  0  0  0  0
    6.2026   -4.9646    0.0000 C   0  0  0  0  0  0  0  0  0  0  0  0
    6.6151   -5.6791    0.0000 N   0  0  0  0  0  0  0  0  0  0  0  0
    6.3137   -6.4470    0.0000 C   0  0  0  0  0  0  0  0  0  0  0  0
    5.5254   -6.6902    0.0000 C   0  0  0  0  0  0  0  0  0  0  0  0
    7.4378   -5.6174    0.0000 C   0  0  0  0  0  0  0  0  0  0  0  0
    7.7958   -4.8741    0.0000 N   0  0  0  0  0  0  0  0  0  0  0  0
    8.6185   -4.8125    0.0000 C   0  0  0  0  0  0  0  0  0  0  0  0
    9.0832   -5.4941    0.0000 N   0  0  0  0  0  0  0  0  0  0  0  0
    8.7252   -6.2374    0.0000 C   0  0  0  0  0  0  0  0  0  0  0  0
    9.0381   -7.0008    0.0000 C   0  0  0  0  0  0  0  0  0  0  0  0
    8.4088   -7.5342    0.0000 C   0  0  0  0  0  0  0  0  0  0  0  0
    7.7070   -7.1005    0.0000 S   0  0  0  0  0  0  0  0  0  0  0  0
    7.9025   -6.2991    0.0000 C   0  0  0  0  0  0  0  0  0  0  0  0
    8.4704   -8.3569    0.0000 C   0  0  0  0  0  0  0  0  0  0  0  0
    9.2137   -8.7149    0.0000 C   0  0  0  0  0  0  0  0  0  0  0  0
    9.2754   -9.5376    0.0000 C   0  0  0  0  0  0  0  0  0  0  0  0
    8.5937  -10.0023    0.0000 C   0  0  0  0  0  0  0  0  0  0  0  0
    7.8504   -9.6444    0.0000 C   0  0  0  0  0  0  0  0  0  0  0  0
    7.7888   -8.8217    0.0000 C   0  0  0  0  0  0  0  0  0  0  0  0
  1  2  1  0  0  0  0
  2  3  1  0  0  0  0
  2  4  1  0  0  0  0
  4  5  1  0  0  0  0
  5  6  1  0  0  0  0
  6  7  1  0  0  0  0
  7  8  2  0  0  0  0
  7  9  1  0  0  0  0
  9 10  1  0  0  0  0
 10 11  1  0  0  0  0
 11 12  1  0  0  0  0
 12 13  1  0  0  0  0
 13 14  1  0  0  0  0
 14 15  1  0  0  0  0
  9 15  1  0  0  0  0
 13 16  1  0  0  0  0
 16 17  1  0  0  0  0
 17 18  2  0  0  0  0
 18 19  1  0  0  0  0
 19 20  2  0  0  0  0
 20 21  1  0  0  0  0
 21 22  2  0  0  0  0
 22 23  1  0  0  0  0
 23 24  1  0  0  0  0
 16 24  2  0  0  0  0
 20 24  1  0  0  0  0
 22 25  1  0  0  0  0
 25 26  2  0  0  0  0
 26 27  1  0  0  0  0
 27 28  2  0  0  0  0
 28 29  1  0  0  0  0
 29 30  2  0  0  0  0
 25 30  1  0  0  0  0
M  END
> <COMPOUND_ID>
MMV024195

$$$$

  Mrv0541 04191616472D          

 25 28  0  0  0  0            999 V2000
    1.0102   -8.6970    0.0000 O   0  0  0  0  0  0  0  0  0  0  0  0
    1.2652   -7.9124    0.0000 C   0  0  0  0  0  0  0  0  0  0  0  0
    0.7132   -7.2993    0.0000 C   0  0  0  0  0  0  0  0  0  0  0  0
    0.9681   -6.5147    0.0000 C   0  0  0  0  0  0  0  0  0  0  0  0
    0.4161   -5.9016    0.0000 C   0  0  0  0  0  0  0  0  0  0  0  0
    0.6710   -5.1170    0.0000 C   0  0  0  0  0  0  0  0  0  0  0  0
    1.4780   -4.9454    0.0000 C   0  0  0  0  0  0  0  0  0  0  0  0
    1.7329   -4.1608    0.0000 N   0  0  0  0  0  0  0  0  0  0  0  0
    1.1809   -3.5477    0.0000 C   0  0  0  0  0  0  0  0  0  0  0  0
    0.3739   -3.7192    0.0000 N   0  0  0  0  0  0  0  0  0  0  0  0
   -0.1781   -3.1062    0.0000 C   0  0  0  0  0  0  0  0  0  0  0  0
    0.0768   -2.3215    0.0000 C   0  0  0  0  0  0  0  0  0  0  0  0
    0.8838   -2.1500    0.0000 C   0  0  0  0  0  0  0  0  0  0  0  0
    1.4358   -2.7631    0.0000 N   0  0  0  0  0  0  0  0  0  0  0  0
    1.1387   -1.3654    0.0000 C   0  0  0  0  0  0  0  0  0  0  0  0
    0.6538   -0.6979    0.0000 N   0  0  0  0  0  0  0  0  0  0  0  0
    1.1387   -0.0305    0.0000 N   0  0  0  0  0  0  0  0  0  0  0  0
    1.9233   -0.2854    0.0000 C   0  0  0  0  0  0  0  0  0  0  0  0
    2.6378    0.1271    0.0000 C   0  0  0  0  0  0  0  0  0  0  0  0
    3.3523   -0.2854    0.0000 C   0  0  0  0  0  0  0  0  0  0  0  0
    3.3523   -1.1104    0.0000 C   0  0  0  0  0  0  0  0  0  0  0  0
    2.6378   -1.5229    0.0000 C   0  0  0  0  0  0  0  0  0  0  0  0
    1.9233   -1.1104    0.0000 N   0  0  0  0  0  0  0  0  0  0  0  0
    2.0300   -5.5585    0.0000 C   0  0  0  0  0  0  0  0  0  0  0  0
    1.7751   -6.3432    0.0000 C   0  0  0  0  0  0  0  0  0  0  0  0
  1  2  1  0  0  0  0
  2  3  1  0  0  0  0
  3  4  1  0  0  0  0
  4  5  2  0  0  0  0
  5  6  1  0  0  0  0
  6  7  2  0  0  0  0
  7  8  1  0  0  0  0
  8  9  1  0  0  0  0
  9 10  2  0  0  0  0
 10 11  1  0  0  0  0
 11 12  2  0  0  0  0
 12 13  1  0  0  0  0
 13 14  2  0  0  0  0
  9 14  1  0  0  0  0
 13 15  1  0  0  0  0
 15 16  2  0  0  0  0
 16 17  1  0  0  0  0
 17 18  2  0  0  0  0
 18 19  1  0  0  0  0
 19 20  2  0  0  0  0
 20 21  1  0  0  0  0
 21 22  2  0  0  0  0
 22 23  1  0  0  0  0
 15 23  1  0  0  0  0
 18 23  1  0  0  0  0
  7 24  1  0  0  0  0
 24 25  2  0  0  0  0
  4 25  1  0  0  0  0
M  END
> <COMPOUND_ID>
MMV028694

$$$$

  Mrv0541 04191616472D          

 27 30  0  0  0  0            999 V2000
   -0.1360   -5.2885    0.0000 C   0  0  0  0  0  0  0  0  0  0  0  0
    0.1190   -4.5039    0.0000 C   0  0  0  0  0  0  0  0  0  0  0  0
   -0.4331   -3.8908    0.0000 C   0  0  0  0  0  0  0  0  0  0  0  0
   -0.1781   -3.1062    0.0000 C   0  0  0  0  0  0  0  0  0  0  0  0
    0.6288   -2.9346    0.0000 C   0  0  0  0  0  0  0  0  0  0  0  0
    1.1809   -3.5477    0.0000 C   0  0  0  0  0  0  0  0  0  0  0  0
    0.9259   -4.3323    0.0000 C   0  0  0  0  0  0  0  0  0  0  0  0
    0.8838   -2.1500    0.0000 S   0  0  0  0  0  0  0  0  0  0  0  0
    1.6684   -2.4049    0.0000 O   0  0  0  0  0  0  0  0  0  0  0  0
    0.0992   -1.8951    0.0000 O   0  0  0  0  0  0  0  0  0  0  0  0
    1.1387   -1.3654    0.0000 N   0  0  0  0  0  0  0  0  0  0  0  0
    0.6538   -0.6979    0.0000 C   0  0  0  0  0  0  0  0  0  0  0  0
    1.1387   -0.0305    0.0000 C   0  0  0  0  0  0  0  0  0  0  0  0
    0.8838    0.7541    0.0000 C   0  0  0  0  0  0  0  0  0  0  0  0
    0.0768    0.9256    0.0000 C   0  0  0  0  0  0  0  0  0  0  0  0
   -0.1781    1.7103    0.0000 C   0  0  0  0  0  0  0  0  0  0  0  0
    0.3739    2.3234    0.0000 N   0  0  0  0  0  0  0  0  0  0  0  0
    1.1809    2.1518    0.0000 C   0  0  0  0  0  0  0  0  0  0  0  0
    1.7329    2.7649    0.0000 N   0  0  0  0  0  0  0  0  0  0  0  0
    1.4358    1.3672    0.0000 C   0  0  0  0  0  0  0  0  0  0  0  0
    1.9233   -0.2854    0.0000 C   0  0  0  0  0  0  0  0  0  0  0  0
    2.6378    0.1271    0.0000 C   0  0  0  0  0  0  0  0  0  0  0  0
    3.3523   -0.2854    0.0000 C   0  0  0  0  0  0  0  0  0  0  0  0
    4.0668    0.1271    0.0000 Br  0  0  0  0  0  0  0  0  0  0  0  0
    3.3523   -1.1104    0.0000 C   0  0  0  0  0  0  0  0  0  0  0  0
    2.6378   -1.5229    0.0000 N   0  0  0  0  0  0  0  0  0  0  0  0
    1.9233   -1.1104    0.0000 C   0  0  0  0  0  0  0  0  0  0  0  0
  1  2  1  0  0  0  0
  2  3  2  0  0  0  0
  3  4  1  0  0  0  0
  4  5  2  0  0  0  0
  5  6  1  0  0  0  0
  6  7  2  0  0  0  0
  2  7  1  0  0  0  0
  5  8  1  0  0  0  0
  8  9  2  0  0  0  0
  8 10  2  0  0  0  0
  8 11  1  0  0  0  0
 11 12  1  0  0  0  0
 12 13  2  0  0  0  0
 13 14  1  0  0  0  0
 14 15  2  0  0  0  0
 15 16  1  0  0  0  0
 16 17  2  0  0  0  0
 17 18  1  0  0  0  0
 18 19  1  0  0  0  0
 18 20  2  0  0  0  0
 14 20  1  0  0  0  0
 13 21  1  0  0  0  0
 21 22  2  0  0  0  0
 22 23  1  0  0  0  0
 23 24  1  0  0  0  0
 23 25  2  0  0  0  0
 25 26  1  0  0  0  0
 26 27  2  0  0  0  0
 11 27  1  0  0  0  0
 21 27  1  0  0  0  0
M  END
> <COMPOUND_ID>
MMV024114

$$$$

  Mrv0541 04191616472D          

 24 27  0  0  0  0            999 V2000
    0.6710   -5.1170    0.0000 C   0  0  0  0  0  0  0  0  0  0  0  0
    0.1190   -4.5039    0.0000 O   0  0  0  0  0  0  0  0  0  0  0  0
    0.3739   -3.7192    0.0000 C   0  0  0  0  0  0  0  0  0  0  0  0
   -0.1781   -3.1062    0.0000 C   0  0  0  0  0  0  0  0  0  0  0  0
    0.0768   -2.3215    0.0000 C   0  0  0  0  0  0  0  0  0  0  0  0
    0.8838   -2.1500    0.0000 C   0  0  0  0  0  0  0  0  0  0  0  0
    1.4358   -2.7631    0.0000 C   0  0  0  0  0  0  0  0  0  0  0  0
    1.1809   -3.5477    0.0000 C   0  0  0  0  0  0  0  0  0  0  0  0
    1.7329   -4.1608    0.0000 O   0  0  0  0  0  0  0  0  0  0  0  0
    1.4780   -4.9454    0.0000 C   0  0  0  0  0  0  0  0  0  0  0  0
    1.1387   -1.3654    0.0000 C   0  0  0  0  0  0  0  0  0  0  0  0
    0.6538   -0.6979    0.0000 C   0  0  0  0  0  0  0  0  0  0  0  0
    1.1387   -0.0305    0.0000 N   0  0  0  0  0  0  0  0  0  0  0  0
    1.9233   -0.2854    0.0000 C   0  0  0  0  0  0  0  0  0  0  0  0
    2.6378    0.1271    0.0000 C   0  0  0  0  0  0  0  0  0  0  0  0
    3.3523   -0.2854    0.0000 C   0  0  0  0  0  0  0  0  0  0  0  0
    3.3523   -1.1104    0.0000 C   0  0  0  0  0  0  0  0  0  0  0  0
    2.6378   -1.5229    0.0000 N   0  0  0  0  0  0  0  0  0  0  0  0
    1.9233   -1.1104    0.0000 N   0  0  0  0  0  0  0  0  0  0  0  0
    4.0668   -1.5229    0.0000 N   0  0  0  0  0  0  0  0  0  0  0  0
    4.8204   -1.1874    0.0000 C   0  0  0  0  0  0  0  0  0  0  0  0
    5.3725   -1.8005    0.0000 C   0  0  0  0  0  0  0  0  0  0  0  0
    4.9600   -2.5150    0.0000 C   0  0  0  0  0  0  0  0  0  0  0  0
    4.1530   -2.3434    0.0000 C   0  0  0  0  0  0  0  0  0  0  0  0
  1  2  1  0  0  0  0
  2  3  1  0  0  0  0
  3  4  2  0  0  0  0
  4  5  1  0  0  0  0
  5  6  2  0  0  0  0
  6  7  1  0  0  0  0
  7  8  2  0  0  0  0
  3  8  1  0  0  0  0
  8  9  1  0  0  0  0
  9 10  1  0  0  0  0
  6 11  1  0  0  0  0
 11 12  2  0  0  0  0
 12 13  1  0  0  0  0
 13 14  2  0  0  0  0
 14 15  1  0  0  0  0
 15 16  2  0  0  0  0
 16 17  1  0  0  0  0
 17 18  2  0  0  0  0
 18 19  1  0  0  0  0
 11 19  1  0  0  0  0
 14 19  1  0  0  0  0
 17 20  1  0  0  0  0
 20 21  1  0  0  0  0
 21 22  1  0  0  0  0
 22 23  1  0  0  0  0
 23 24  1  0  0  0  0
 20 24  1  0  0  0  0
M  END
> <COMPOUND_ID>
MMV023985

$$$$

  Mrv0541 04191616472D          

 24 26  0  0  0  0            999 V2000
    6.4718    4.2678    0.0000 F   0  0  0  0  0  0  0  0  0  0  0  0
    5.8670    3.7066    0.0000 C   0  0  0  0  0  0  0  0  0  0  0  0
    5.3059    4.3114    0.0000 F   0  0  0  0  0  0  0  0  0  0  0  0
    6.4281    3.1018    0.0000 F   0  0  0  0  0  0  0  0  0  0  0  0
    5.2622    3.1455    0.0000 C   0  0  0  0  0  0  0  0  0  0  0  0
    5.4458    2.3412    0.0000 C   0  0  0  0  0  0  0  0  0  0  0  0
    4.8410    1.7800    0.0000 C   0  0  0  0  0  0  0  0  0  0  0  0
    4.0527    2.0232    0.0000 C   0  0  0  0  0  0  0  0  0  0  0  0
    3.4479    1.4620    0.0000 C   0  0  0  0  0  0  0  0  0  0  0  0
    3.6315    0.6577    0.0000 N   0  0  0  0  0  0  0  0  0  0  0  0
    4.4358    0.4742    0.0000 C   0  0  0  0  0  0  0  0  0  0  0  0
    4.9502    1.1192    0.0000 O   0  0  0  0  0  0  0  0  0  0  0  0
    4.7938   -0.2691    0.0000 C   0  0  0  0  0  0  0  0  0  0  0  0
    4.4358   -1.0124    0.0000 O   0  0  0  0  0  0  0  0  0  0  0  0
    3.6315   -1.1960    0.0000 C   0  0  0  0  0  0  0  0  0  0  0  0
    2.9865   -0.6816    0.0000 C   0  0  0  0  0  0  0  0  0  0  0  0
    2.2720   -1.0941    0.0000 C   0  0  0  0  0  0  0  0  0  0  0  0
    1.5575   -0.6816    0.0000 C   0  0  0  0  0  0  0  0  0  0  0  0
    1.5575    0.1434    0.0000 C   0  0  0  0  0  0  0  0  0  0  0  0
    0.8431    0.5559    0.0000 Br  0  0  0  0  0  0  0  0  0  0  0  0
    2.2720    0.5559    0.0000 C   0  0  0  0  0  0  0  0  0  0  0  0
    2.9865    0.1434    0.0000 C   0  0  0  0  0  0  0  0  0  0  0  0
    3.8691    2.8275    0.0000 C   0  0  0  0  0  0  0  0  0  0  0  0
    4.4739    3.3886    0.0000 C   0  0  0  0  0  0  0  0  0  0  0  0
  1  2  1  0  0  0  0
  2  3  1  0  0  0  0
  2  4  1  0  0  0  0
  2  5  1  0  0  0  0
  5  6  2  0  0  0  0
  6  7  1  0  0  0  0
  7  8  2  0  0  0  0
  8  9  1  0  0  0  0
  9 10  1  0  0  0  0
 10 11  1  0  0  0  0
 11 12  2  0  0  0  0
 11 13  1  0  0  0  0
 13 14  1  0  0  0  0
 14 15  1  0  0  0  0
 15 16  1  0  0  0  0
 16 17  2  0  0  0  0
 17 18  1  0  0  0  0
 18 19  2  0  0  0  0
 19 20  1  0  0  0  0
 19 21  1  0  0  0  0
 21 22  2  0  0  0  0
 10 22  1  0  0  0  0
 16 22  1  0  0  0  0
  8 23  1  0  0  0  0
 23 24  2  0  0  0  0
  5 24  1  0  0  0  0
M  END
> <COMPOUND_ID>
MMV032995

$$$$

  Mrv0541 04191616472D          

 28 31  0  0  0  0            999 V2000
   -1.4289   -2.4750    0.0000 O   0  0  0  0  0  0  0  0  0  0  0  0
   -0.7145   -2.8875    0.0000 C   0  0  0  0  0  0  0  0  0  0  0  0
   -0.7145   -3.7125    0.0000 N   0  0  0  0  0  0  0  0  0  0  0  0
   -1.4289   -4.1250    0.0000 C   0  0  0  0  0  0  0  0  0  0  0  0
   -1.4289   -4.9500    0.0000 C   0  0  0  0  0  0  0  0  0  0  0  0
   -2.1434   -5.3625    0.0000 C   0  0  0  0  0  0  0  0  0  0  0  0
   -2.1434   -6.1875    0.0000 C   0  0  0  0  0  0  0  0  0  0  0  0
   -2.8579   -6.6000    0.0000 C   0  0  0  0  0  0  0  0  0  0  0  0
   -3.5724   -6.1875    0.0000 C   0  0  0  0  0  0  0  0  0  0  0  0
   -3.5724   -5.3625    0.0000 C   0  0  0  0  0  0  0  0  0  0  0  0
   -2.8579   -4.9500    0.0000 C   0  0  0  0  0  0  0  0  0  0  0  0
    0.0000   -2.4750    0.0000 C   0  0  0  0  0  0  0  0  0  0  0  0
    0.0000   -1.6500    0.0000 C   0  0  0  0  0  0  0  0  0  0  0  0
    0.7145   -1.2375    0.0000 C   0  0  0  0  0  0  0  0  0  0  0  0
    1.4289   -1.6500    0.0000 C   0  0  0  0  0  0  0  0  0  0  0  0
    1.4289   -2.4750    0.0000 N   0  0  0  0  0  0  0  0  0  0  0  0
    0.7145   -2.8875    0.0000 C   0  0  0  0  0  0  0  0  0  0  0  0
    0.7145   -3.7125    0.0000 N   0  0  0  0  0  0  0  0  0  0  0  0
    1.4289   -4.1250    0.0000 C   0  0  0  0  0  0  0  0  0  0  0  0
    1.4289   -4.9500    0.0000 C   0  0  0  0  0  0  0  0  0  0  0  0
    1.8414   -5.6645    0.0000 C   0  0  0  0  0  0  0  0  0  0  0  0
    1.0164   -5.6645    0.0000 C   0  0  0  0  0  0  0  0  0  0  0  0
    0.7145   -0.4125    0.0000 C   0  0  0  0  0  0  0  0  0  0  0  0
    0.0000    0.0000    0.0000 C   0  0  0  0  0  0  0  0  0  0  0  0
    0.0000    0.8250    0.0000 C   0  0  0  0  0  0  0  0  0  0  0  0
    0.7145    1.2375    0.0000 C   0  0  0  0  0  0  0  0  0  0  0  0
    1.4289    0.8250    0.0000 N   0  0  0  0  0  0  0  0  0  0  0  0
    1.4289    0.0000    0.0000 C   0  0  0  0  0  0  0  0  0  0  0  0
  1  2  2  0  0  0  0
  2  3  1  0  0  0  0
  3  4  1  0  0  0  0
  4  5  1  0  0  0  0
  5  6  1  0  0  0  0
  6  7  2  0  0  0  0
  7  8  1  0  0  0  0
  8  9  2  0  0  0  0
  9 10  1  0  0  0  0
 10 11  2  0  0  0  0
  6 11  1  0  0  0  0
  2 12  1  0  0  0  0
 12 13  2  0  0  0  0
 13 14  1  0  0  0  0
 14 15  2  0  0  0  0
 15 16  1  0  0  0  0
 16 17  2  0  0  0  0
 12 17  1  0  0  0  0
 17 18  1  0  0  0  0
 18 19  1  0  0  0  0
 19 20  1  0  0  0  0
 20 21  1  0  0  0  0
 21 22  1  0  0  0  0
 20 22  1  0  0  0  0
 14 23  1  0  0  0  0
 23 24  2  0  0  0  0
 24 25  1  0  0  0  0
 25 26  2  0  0  0  0
 26 27  1  0  0  0  0
 27 28  2  0  0  0  0
 23 28  1  0  0  0  0
M  END
> <COMPOUND_ID>
MMV026490

$$$$

  Mrv0541 04191616472D          

 30 33  0  0  0  0            999 V2000
    0.7145    0.4125    0.0000 F   0  0  0  0  0  0  0  0  0  0  0  0
    0.7145   -0.4125    0.0000 C   0  0  0  0  0  0  0  0  0  0  0  0
   -0.1105   -0.4125    0.0000 F   0  0  0  0  0  0  0  0  0  0  0  0
    1.5395   -0.4125    0.0000 F   0  0  0  0  0  0  0  0  0  0  0  0
    0.7145   -1.2375    0.0000 C   0  0  0  0  0  0  0  0  0  0  0  0
    1.3819   -1.7224    0.0000 N   0  0  0  0  0  0  0  0  0  0  0  0
    1.1270   -2.5070    0.0000 C   0  0  0  0  0  0  0  0  0  0  0  0
    0.3020   -2.5070    0.0000 O   0  0  0  0  0  0  0  0  0  0  0  0
    0.0470   -1.7224    0.0000 C   0  0  0  0  0  0  0  0  0  0  0  0
   -0.7376   -1.4675    0.0000 C   0  0  0  0  0  0  0  0  0  0  0  0
   -1.3507   -2.0195    0.0000 O   0  0  0  0  0  0  0  0  0  0  0  0
   -0.9091   -0.6605    0.0000 N   0  0  0  0  0  0  0  0  0  0  0  0
   -1.6937   -0.4056    0.0000 C   0  0  0  0  0  0  0  0  0  0  0  0
   -2.3068   -0.9576    0.0000 C   0  0  0  0  0  0  0  0  0  0  0  0
   -3.0915   -0.7027    0.0000 C   0  0  0  0  0  0  0  0  0  0  0  0
   -3.2630    0.1043    0.0000 C   0  0  0  0  0  0  0  0  0  0  0  0
   -2.6499    0.6563    0.0000 N   0  0  0  0  0  0  0  0  0  0  0  0
   -1.8653    0.4014    0.0000 C   0  0  0  0  0  0  0  0  0  0  0  0
   -4.0476    0.3592    0.0000 N   0  0  0  0  0  0  0  0  0  0  0  0
   -4.6607   -0.1928    0.0000 C   0  0  0  0  0  0  0  0  0  0  0  0
   -5.4453    0.0622    0.0000 C   0  0  0  0  0  0  0  0  0  0  0  0
   -5.6168    0.8691    0.0000 N   0  0  0  0  0  0  0  0  0  0  0  0
   -5.0038    1.4212    0.0000 C   0  0  0  0  0  0  0  0  0  0  0  0
   -4.2191    1.1662    0.0000 C   0  0  0  0  0  0  0  0  0  0  0  0
    1.6119   -3.1745    0.0000 C   0  0  0  0  0  0  0  0  0  0  0  0
    2.4324   -3.0882    0.0000 C   0  0  0  0  0  0  0  0  0  0  0  0
    2.9173   -3.7557    0.0000 C   0  0  0  0  0  0  0  0  0  0  0  0
    2.5817   -4.5094    0.0000 C   0  0  0  0  0  0  0  0  0  0  0  0
    1.7613   -4.5956    0.0000 C   0  0  0  0  0  0  0  0  0  0  0  0
    1.2763   -3.9282    0.0000 C   0  0  0  0  0  0  0  0  0  0  0  0
  1  2  1  0  0  0  0
  2  3  1  0  0  0  0
  2  4  1  0  0  0  0
  2  5  1  0  0  0  0
  5  6  1  0  0  0  0
  6  7  2  0  0  0  0
  7  8  1  0  0  0  0
  8  9  1  0  0  0  0
  5  9  2  0  0  0  0
  9 10  1  0  0  0  0
 10 11  2  0  0  0  0
 10 12  1  0  0  0  0
 12 13  1  0  0  0  0
 13 14  2  0  0  0  0
 14 15  1  0  0  0  0
 15 16  2  0  0  0  0
 16 17  1  0  0  0  0
 17 18  2  0  0  0  0
 13 18  1  0  0  0  0
 16 19  1  0  0  0  0
 19 20  1  0  0  0  0
 20 21  1  0  0  0  0
 21 22  1  0  0  0  0
 22 23  1  0  0  0  0
 23 24  1  0  0  0  0
 19 24  1  0  0  0  0
  7 25  1  0  0  0  0
 25 26  2  0  0  0  0
 26 27  1  0  0  0  0
 27 28  2  0  0  0  0
 28 29  1  0  0  0  0
 29 30  2  0  0  0  0
 25 30  1  0  0  0  0
M  END
> <COMPOUND_ID>
MMV024937

$$$$

  Mrv0541 04191616472D          

 26 29  0  0  0  0            999 V2000
   -0.7145   -4.5375    0.0000 N   0  0  0  0  0  0  0  0  0  0  0  0
   -0.7145   -3.7125    0.0000 S   0  0  0  0  0  0  0  0  0  0  0  0
    0.1105   -3.7125    0.0000 O   0  0  0  0  0  0  0  0  0  0  0  0
   -1.5395   -3.7125    0.0000 O   0  0  0  0  0  0  0  0  0  0  0  0
   -0.7145   -2.8875    0.0000 C   0  0  0  0  0  0  0  0  0  0  0  0
   -1.4289   -2.4750    0.0000 C   0  0  0  0  0  0  0  0  0  0  0  0
   -1.4289   -1.6500    0.0000 C   0  0  0  0  0  0  0  0  0  0  0  0
   -0.7145   -1.2375    0.0000 C   0  0  0  0  0  0  0  0  0  0  0  0
    0.0000   -1.6500    0.0000 C   0  0  0  0  0  0  0  0  0  0  0  0
    0.0000   -2.4750    0.0000 C   0  0  0  0  0  0  0  0  0  0  0  0
    0.7145   -1.2375    0.0000 C   0  0  0  0  0  0  0  0  0  0  0  0
    0.7145   -0.4125    0.0000 C   0  0  0  0  0  0  0  0  0  0  0  0
    1.4289    0.0000    0.0000 C   0  0  0  0  0  0  0  0  0  0  0  0
    2.1434   -0.4125    0.0000 C   0  0  0  0  0  0  0  0  0  0  0  0
    2.8579    0.0000    0.0000 N   0  0  0  0  0  0  0  0  0  0  0  0
    3.5724   -0.4125    0.0000 C   0  0  0  0  0  0  0  0  0  0  0  0
    3.5724   -1.2375    0.0000 C   0  0  0  0  0  0  0  0  0  0  0  0
    2.8579   -1.6500    0.0000 N   0  0  0  0  0  0  0  0  0  0  0  0
    2.1434   -1.2375    0.0000 C   0  0  0  0  0  0  0  0  0  0  0  0
    1.4289   -1.6500    0.0000 C   0  0  0  0  0  0  0  0  0  0  0  0
    4.2868   -1.6500    0.0000 N   0  0  0  0  0  0  0  0  0  0  0  0
    5.0013   -1.2375    0.0000 C   0  0  0  0  0  0  0  0  0  0  0  0
    5.7158   -1.6500    0.0000 C   0  0  0  0  0  0  0  0  0  0  0  0
    5.7158   -2.4750    0.0000 O   0  0  0  0  0  0  0  0  0  0  0  0
    5.0013   -2.8875    0.0000 C   0  0  0  0  0  0  0  0  0  0  0  0
    4.2868   -2.4750    0.0000 C   0  0  0  0  0  0  0  0  0  0  0  0
  1  2  1  0  0  0  0
  2  3  2  0  0  0  0
  2  4  2  0  0  0  0
  2  5  1  0  0  0  0
  5  6  2  0  0  0  0
  6  7  1  0  0  0  0
  7  8  2  0  0  0  0
  8  9  1  0  0  0  0
  9 10  2  0  0  0  0
  5 10  1  0  0  0  0
  9 11  1  0  0  0  0
 11 12  2  0  0  0  0
 12 13  1  0  0  0  0
 13 14  2  0  0  0  0
 14 15  1  0  0  0  0
 15 16  2  0  0  0  0
 16 17  1  0  0  0  0
 17 18  2  0  0  0  0
 18 19  1  0  0  0  0
 14 19  1  0  0  0  0
 19 20  2  0  0  0  0
 11 20  1  0  0  0  0
 17 21  1  0  0  0  0
 21 22  1  0  0  0  0
 22 23  1  0  0  0  0
 23 24  1  0  0  0  0
 24 25  1  0  0  0  0
 25 26  1  0  0  0  0
 21 26  1  0  0  0  0
M  END
> <COMPOUND_ID>
MMV023860

$$$$

  Mrv0541 04191616472D          

 25 28  0  0  0  0            999 V2000
   -0.1712   -2.1269    0.0000 C   0  0  0  0  0  0  0  0  0  0  0  0
   -0.5837   -1.4124    0.0000 N   0  0  0  0  0  0  0  0  0  0  0  0
   -0.1712   -0.6979    0.0000 C   0  0  0  0  0  0  0  0  0  0  0  0
   -0.5837    0.0165    0.0000 O   0  0  0  0  0  0  0  0  0  0  0  0
    0.6538   -0.6979    0.0000 C   0  0  0  0  0  0  0  0  0  0  0  0
    1.1387   -0.0305    0.0000 C   0  0  0  0  0  0  0  0  0  0  0  0
    1.9233   -0.2854    0.0000 C   0  0  0  0  0  0  0  0  0  0  0  0
    2.6378    0.1271    0.0000 C   0  0  0  0  0  0  0  0  0  0  0  0
    3.3523   -0.2854    0.0000 C   0  0  0  0  0  0  0  0  0  0  0  0
    3.3523   -1.1104    0.0000 C   0  0  0  0  0  0  0  0  0  0  0  0
    2.6378   -1.5229    0.0000 C   0  0  0  0  0  0  0  0  0  0  0  0
    1.9233   -1.1104    0.0000 C   0  0  0  0  0  0  0  0  0  0  0  0
    1.1387   -1.3654    0.0000 N   0  0  0  0  0  0  0  0  0  0  0  0
    2.6378    0.9521    0.0000 C   0  0  0  0  0  0  0  0  0  0  0  0
    1.9233    1.3646    0.0000 C   0  0  0  0  0  0  0  0  0  0  0  0
    1.9233    2.1896    0.0000 N   0  0  0  0  0  0  0  0  0  0  0  0
    2.6378    2.6021    0.0000 C   0  0  0  0  0  0  0  0  0  0  0  0
    3.3523    2.1896    0.0000 N   0  0  0  0  0  0  0  0  0  0  0  0
    3.3523    1.3646    0.0000 C   0  0  0  0  0  0  0  0  0  0  0  0
   -1.4087   -1.4124    0.0000 C   0  0  0  0  0  0  0  0  0  0  0  0
   -1.8212   -2.1269    0.0000 C   0  0  0  0  0  0  0  0  0  0  0  0
   -2.6462   -2.1269    0.0000 C   0  0  0  0  0  0  0  0  0  0  0  0
   -3.0587   -1.4124    0.0000 C   0  0  0  0  0  0  0  0  0  0  0  0
   -2.6462   -0.6979    0.0000 C   0  0  0  0  0  0  0  0  0  0  0  0
   -1.8212   -0.6979    0.0000 C   0  0  0  0  0  0  0  0  0  0  0  0
  1  2  1  0  0  0  0
  2  3  1  0  0  0  0
  3  4  2  0  0  0  0
  3  5  1  0  0  0  0
  5  6  2  0  0  0  0
  6  7  1  0  0  0  0
  7  8  2  0  0  0  0
  8  9  1  0  0  0  0
  9 10  2  0  0  0  0
 10 11  1  0  0  0  0
 11 12  2  0  0  0  0
  7 12  1  0  0  0  0
 12 13  1  0  0  0  0
  5 13  1  0  0  0  0
  8 14  1  0  0  0  0
 14 15  2  0  0  0  0
 15 16  1  0  0  0  0
 16 17  2  0  0  0  0
 17 18  1  0  0  0  0
 18 19  2  0  0  0  0
 14 19  1  0  0  0  0
  2 20  1  0  0  0  0
 20 21  2  0  0  0  0
 21 22  1  0  0  0  0
 22 23  2  0  0  0  0
 23 24  1  0  0  0  0
 24 25  2  0  0  0  0
 20 25  1  0  0  0  0
M  END
> <COMPOUND_ID>
MMV024443

$$$$

  Mrv0541 04191616472D          

 17 18  0  0  0  0            999 V2000
    0.7145   -2.8875    0.0000 C   0  0  0  0  0  0  0  0  0  0  0  0
    1.4289   -2.4750    0.0000 O   0  0  0  0  0  0  0  0  0  0  0  0
    1.4289   -1.6500    0.0000 C   0  0  0  0  0  0  0  0  0  0  0  0
    0.7145   -1.2375    0.0000 C   0  0  0  0  0  0  0  0  0  0  0  0
    0.7145   -0.4125    0.0000 C   0  0  0  0  0  0  0  0  0  0  0  0
    1.4289    0.0000    0.0000 C   0  0  0  0  0  0  0  0  0  0  0  0
    2.1434   -0.4125    0.0000 C   0  0  0  0  0  0  0  0  0  0  0  0
    2.8579    0.0000    0.0000 C   0  0  0  0  0  0  0  0  0  0  0  0
    2.8579    0.8250    0.0000 C   0  0  0  0  0  0  0  0  0  0  0  0
    3.5724   -0.4125    0.0000 N   0  0  0  0  0  0  0  0  0  0  0  0
    3.5724   -1.2375    0.0000 C   0  0  0  0  0  0  0  0  0  0  0  0
    4.2868   -1.6500    0.0000 N   0  0  0  0  0  0  0  0  0  0  0  0
    4.2868   -2.4750    0.0000 C   0  0  0  0  0  0  0  0  0  0  0  0
    5.0013   -2.8875    0.0000 N   0  0  0  0  0  0  0  0  0  0  0  0
    3.5724   -2.8875    0.0000 N   0  0  0  0  0  0  0  0  0  0  0  0
    2.8579   -1.6500    0.0000 N   0  0  0  0  0  0  0  0  0  0  0  0
    2.1434   -1.2375    0.0000 C   0  0  0  0  0  0  0  0  0  0  0  0
  1  2  1  0  0  0  0
  2  3  1  0  0  0  0
  3  4  1  0  0  0  0
  4  5  2  0  0  0  0
  5  6  1  0  0  0  0
  6  7  2  0  0  0  0
  7  8  1  0  0  0  0
  8  9  1  0  0  0  0
  8 10  2  0  0  0  0
 10 11  1  0  0  0  0
 11 12  1  0  0  0  0
 12 13  2  0  0  0  0
 13 14  1  0  0  0  0
 13 15  1  0  0  0  0
 11 16  2  0  0  0  0
 16 17  1  0  0  0  0
  3 17  2  0  0  0  0
  7 17  1  0  0  0  0
M  END
> <COMPOUND_ID>
MMV000907

$$$$

  Mrv0541 04191616472D          

 23 25  0  0  0  0            999 V2000
   -3.8874   -4.4043    0.0000 C   0  0  0  0  0  0  0  0  0  0  0  0
   -3.0670   -4.3181    0.0000 C   0  0  0  0  0  0  0  0  0  0  0  0
   -2.6545   -3.6036    0.0000 C   0  0  0  0  0  0  0  0  0  0  0  0
   -1.8475   -3.7751    0.0000 N   0  0  0  0  0  0  0  0  0  0  0  0
   -1.7613   -4.5956    0.0000 C   0  0  0  0  0  0  0  0  0  0  0  0
   -1.0468   -5.0081    0.0000 C   0  0  0  0  0  0  0  0  0  0  0  0
   -0.3323   -4.5956    0.0000 C   0  0  0  0  0  0  0  0  0  0  0  0
    0.3822   -5.0081    0.0000 N   0  0  0  0  0  0  0  0  0  0  0  0
    1.0966   -4.5956    0.0000 C   0  0  0  0  0  0  0  0  0  0  0  0
    1.0966   -3.7706    0.0000 O   0  0  0  0  0  0  0  0  0  0  0  0
    1.8111   -5.0081    0.0000 C   0  0  0  0  0  0  0  0  0  0  0  0
    2.5648   -4.6725    0.0000 C   0  0  0  0  0  0  0  0  0  0  0  0
    3.1168   -5.2856    0.0000 C   0  0  0  0  0  0  0  0  0  0  0  0
    2.7043   -6.0001    0.0000 C   0  0  0  0  0  0  0  0  0  0  0  0
    1.8973   -5.8286    0.0000 S   0  0  0  0  0  0  0  0  0  0  0  0
    3.9373   -5.1994    0.0000 C   0  0  0  0  0  0  0  0  0  0  0  0
    4.2728   -4.4457    0.0000 C   0  0  0  0  0  0  0  0  0  0  0  0
    5.0933   -4.3595    0.0000 C   0  0  0  0  0  0  0  0  0  0  0  0
    5.5782   -5.0269    0.0000 C   0  0  0  0  0  0  0  0  0  0  0  0
    6.3987   -4.9407    0.0000 Cl  0  0  0  0  0  0  0  0  0  0  0  0
    5.2427   -5.7806    0.0000 C   0  0  0  0  0  0  0  0  0  0  0  0
    4.4222   -5.8668    0.0000 C   0  0  0  0  0  0  0  0  0  0  0  0
   -2.5149   -4.9312    0.0000 N   0  0  0  0  0  0  0  0  0  0  0  0
  1  2  1  0  0  0  0
  2  3  2  0  0  0  0
  3  4  1  0  0  0  0
  4  5  2  0  0  0  0
  5  6  1  0  0  0  0
  6  7  1  0  0  0  0
  7  8  1  0  0  0  0
  8  9  1  0  0  0  0
  9 10  2  0  0  0  0
  9 11  1  0  0  0  0
 11 12  2  0  0  0  0
 12 13  1  0  0  0  0
 13 14  2  0  0  0  0
 14 15  1  0  0  0  0
 11 15  1  0  0  0  0
 13 16  1  0  0  0  0
 16 17  2  0  0  0  0
 17 18  1  0  0  0  0
 18 19  2  0  0  0  0
 19 20  1  0  0  0  0
 19 21  1  0  0  0  0
 21 22  2  0  0  0  0
 16 22  1  0  0  0  0
  5 23  1  0  0  0  0
  2 23  1  0  0  0  0
M  END
> <COMPOUND_ID>
MMV676350

$$$$

  Mrv0541 04191616472D          

 27 31  0  0  0  0            999 V2000
    0.8838   -4.7945    0.0000 O   0  0  0  0  0  0  0  0  0  0  0  0
    1.1387   -4.0099    0.0000 C   0  0  0  0  0  0  0  0  0  0  0  0
    0.6538   -3.3424    0.0000 N   0  0  0  0  0  0  0  0  0  0  0  0
   -0.1712   -3.3424    0.0000 C   0  0  0  0  0  0  0  0  0  0  0  0
   -0.5837   -4.0569    0.0000 C   0  0  0  0  0  0  0  0  0  0  0  0
   -0.2481   -4.8106    0.0000 C   0  0  0  0  0  0  0  0  0  0  0  0
   -0.8612   -5.3626    0.0000 C   0  0  0  0  0  0  0  0  0  0  0  0
   -0.8612   -6.1876    0.0000 C   0  0  0  0  0  0  0  0  0  0  0  0
   -1.5757   -6.6001    0.0000 C   0  0  0  0  0  0  0  0  0  0  0  0
   -2.2902   -6.1876    0.0000 C   0  0  0  0  0  0  0  0  0  0  0  0
   -2.2902   -5.3626    0.0000 C   0  0  0  0  0  0  0  0  0  0  0  0
   -1.5757   -4.9501    0.0000 C   0  0  0  0  0  0  0  0  0  0  0  0
   -1.4042   -4.1431    0.0000 S   0  0  0  0  0  0  0  0  0  0  0  0
    1.1387   -2.6750    0.0000 C   0  0  0  0  0  0  0  0  0  0  0  0
    1.9233   -2.9299    0.0000 C   0  0  0  0  0  0  0  0  0  0  0  0
    2.6378   -2.5174    0.0000 C   0  0  0  0  0  0  0  0  0  0  0  0
    3.3523   -2.9299    0.0000 N   0  0  0  0  0  0  0  0  0  0  0  0
    4.0668   -2.5174    0.0000 C   0  0  0  0  0  0  0  0  0  0  0  0
    4.7812   -2.9299    0.0000 C   0  0  0  0  0  0  0  0  0  0  0  0
    5.4957   -2.5174    0.0000 C   0  0  0  0  0  0  0  0  0  0  0  0
    6.2102   -2.9299    0.0000 C   0  0  0  0  0  0  0  0  0  0  0  0
    6.2102   -3.7549    0.0000 C   0  0  0  0  0  0  0  0  0  0  0  0
    5.4957   -4.1674    0.0000 C   0  0  0  0  0  0  0  0  0  0  0  0
    4.7812   -3.7549    0.0000 C   0  0  0  0  0  0  0  0  0  0  0  0
    3.3523   -3.7549    0.0000 C   0  0  0  0  0  0  0  0  0  0  0  0
    2.6378   -4.1674    0.0000 C   0  0  0  0  0  0  0  0  0  0  0  0
    1.9233   -3.7549    0.0000 N   0  0  0  0  0  0  0  0  0  0  0  0
  1  2  2  0  0  0  0
  2  3  1  0  0  0  0
  3  4  1  0  0  0  0
  4  5  1  0  0  0  0
  5  6  2  0  0  0  0
  6  7  1  0  0  0  0
  7  8  2  0  0  0  0
  8  9  1  0  0  0  0
  9 10  2  0  0  0  0
 10 11  1  0  0  0  0
 11 12  2  0  0  0  0
  7 12  1  0  0  0  0
 12 13  1  0  0  0  0
  5 13  1  0  0  0  0
  3 14  1  0  0  0  0
 14 15  1  0  0  0  0
 15 16  1  0  0  0  0
 16 17  1  0  0  0  0
 17 18  1  0  0  0  0
 18 19  1  0  0  0  0
 19 20  2  0  0  0  0
 20 21  1  0  0  0  0
 21 22  2  0  0  0  0
 22 23  1  0  0  0  0
 23 24  2  0  0  0  0
 19 24  1  0  0  0  0
 17 25  1  0  0  0  0
 25 26  1  0  0  0  0
 26 27  1  0  0  0  0
  2 27  1  0  0  0  0
 15 27  1  0  0  0  0
M  END
> <COMPOUND_ID>
MMV084603

$$$$

  Mrv0541 04191616472D          

 30 33  0  0  0  0            999 V2000
    4.7812    5.2354    0.0000 C   0  0  0  0  0  0  0  0  0  0  0  0
    4.7812    4.4104    0.0000 S   0  0  0  0  0  0  0  0  0  0  0  0
    3.9562    4.4104    0.0000 O   0  0  0  0  0  0  0  0  0  0  0  0
    5.6062    4.4104    0.0000 O   0  0  0  0  0  0  0  0  0  0  0  0
    4.7812    3.5854    0.0000 C   0  0  0  0  0  0  0  0  0  0  0  0
    5.4957    3.1729    0.0000 C   0  0  0  0  0  0  0  0  0  0  0  0
    5.4957    2.3479    0.0000 C   0  0  0  0  0  0  0  0  0  0  0  0
    4.7812    1.9354    0.0000 C   0  0  0  0  0  0  0  0  0  0  0  0
    4.0668    2.3479    0.0000 C   0  0  0  0  0  0  0  0  0  0  0  0
    4.0668    3.1729    0.0000 C   0  0  0  0  0  0  0  0  0  0  0  0
    3.3523    1.9354    0.0000 C   0  0  0  0  0  0  0  0  0  0  0  0
    3.3523    1.1104    0.0000 C   0  0  0  0  0  0  0  0  0  0  0  0
    2.6378    0.6979    0.0000 N   0  0  0  0  0  0  0  0  0  0  0  0
    1.9233    1.1104    0.0000 C   0  0  0  0  0  0  0  0  0  0  0  0
    1.1387    0.8555    0.0000 N   0  0  0  0  0  0  0  0  0  0  0  0
    0.6538    1.5229    0.0000 C   0  0  0  0  0  0  0  0  0  0  0  0
    1.1387    2.1904    0.0000 C   0  0  0  0  0  0  0  0  0  0  0  0
    0.8838    2.9750    0.0000 C   0  0  0  0  0  0  0  0  0  0  0  0
    0.0768    3.1465    0.0000 C   0  0  0  0  0  0  0  0  0  0  0  0
   -0.1781    3.9312    0.0000 C   0  0  0  0  0  0  0  0  0  0  0  0
    0.3739    4.5442    0.0000 C   0  0  0  0  0  0  0  0  0  0  0  0
    0.1190    5.3289    0.0000 C   0  0  0  0  0  0  0  0  0  0  0  0
   -0.6880    5.5004    0.0000 C   0  0  0  0  0  0  0  0  0  0  0  0
   -0.9429    6.2850    0.0000 C   0  0  0  0  0  0  0  0  0  0  0  0
   -1.7499    6.4565    0.0000 O   0  0  0  0  0  0  0  0  0  0  0  0
   -0.3909    6.8981    0.0000 O   0  0  0  0  0  0  0  0  0  0  0  0
    1.1809    4.3727    0.0000 C   0  0  0  0  0  0  0  0  0  0  0  0
    1.4358    3.5881    0.0000 C   0  0  0  0  0  0  0  0  0  0  0  0
    1.9233    1.9354    0.0000 C   0  0  0  0  0  0  0  0  0  0  0  0
    2.6378    2.3479    0.0000 C   0  0  0  0  0  0  0  0  0  0  0  0
  1  2  1  0  0  0  0
  2  3  2  0  0  0  0
  2  4  2  0  0  0  0
  2  5  1  0  0  0  0
  5  6  2  0  0  0  0
  6  7  1  0  0  0  0
  7  8  2  0  0  0  0
  8  9  1  0  0  0  0
  9 10  2  0  0  0  0
  5 10  1  0  0  0  0
  9 11  1  0  0  0  0
 11 12  2  0  0  0  0
 12 13  1  0  0  0  0
 13 14  2  0  0  0  0
 14 15  1  0  0  0  0
 15 16  1  0  0  0  0
 16 17  2  0  0  0  0
 17 18  1  0  0  0  0
 18 19  2  0  0  0  0
 19 20  1  0  0  0  0
 20 21  2  0  0  0  0
 21 22  1  0  0  0  0
 22 23  1  0  0  0  0
 23 24  1  0  0  0  0
 24 25  2  0  0  0  0
 24 26  1  0  0  0  0
 21 27  1  0  0  0  0
 27 28  2  0  0  0  0
 18 28  1  0  0  0  0
 17 29  1  0  0  0  0
 14 29  1  0  0  0  0
 29 30  2  0  0  0  0
 11 30  1  0  0  0  0
M  END
> <COMPOUND_ID>
MMV026020

$$$$

  Mrv0541 04191616472D          

 29 32  0  0  0  0            999 V2000
    0.0768   -2.3215    0.0000 C   0  0  0  0  0  0  0  0  0  0  0  0
    0.8838   -2.1500    0.0000 C   0  0  0  0  0  0  0  0  0  0  0  0
    1.1387   -1.3654    0.0000 N   0  0  0  0  0  0  0  0  0  0  0  0
    0.6538   -0.6979    0.0000 N   0  0  0  0  0  0  0  0  0  0  0  0
    1.1387   -0.0305    0.0000 C   0  0  0  0  0  0  0  0  0  0  0  0
    1.9233   -0.2854    0.0000 C   0  0  0  0  0  0  0  0  0  0  0  0
    2.6378    0.1271    0.0000 C   0  0  0  0  0  0  0  0  0  0  0  0
    2.6378    0.9521    0.0000 N   0  0  0  0  0  0  0  0  0  0  0  0
    3.3523    1.3646    0.0000 C   0  0  0  0  0  0  0  0  0  0  0  0
    3.3523    2.1896    0.0000 C   0  0  0  0  0  0  0  0  0  0  0  0
    4.0668    2.6021    0.0000 C   0  0  0  0  0  0  0  0  0  0  0  0
    4.7812    2.1896    0.0000 O   0  0  0  0  0  0  0  0  0  0  0  0
    4.7812    1.3646    0.0000 C   0  0  0  0  0  0  0  0  0  0  0  0
    4.0668    0.9521    0.0000 C   0  0  0  0  0  0  0  0  0  0  0  0
    3.3523   -0.2854    0.0000 C   0  0  0  0  0  0  0  0  0  0  0  0
    4.0668    0.1271    0.0000 C   0  0  0  0  0  0  0  0  0  0  0  0
    4.7812   -0.2854    0.0000 N   0  0  0  0  0  0  0  0  0  0  0  0
    5.4957    0.1271    0.0000 C   0  0  0  0  0  0  0  0  0  0  0  0
    5.4957    0.9521    0.0000 O   0  0  0  0  0  0  0  0  0  0  0  0
    6.2102   -0.2854    0.0000 C   0  0  0  0  0  0  0  0  0  0  0  0
    6.9638    0.0501    0.0000 C   0  0  0  0  0  0  0  0  0  0  0  0
    7.5159   -0.5630    0.0000 C   0  0  0  0  0  0  0  0  0  0  0  0
    7.1034   -1.2775    0.0000 N   0  0  0  0  0  0  0  0  0  0  0  0
    6.2964   -1.1059    0.0000 N   0  0  0  0  0  0  0  0  0  0  0  0
    5.6833   -1.6580    0.0000 C   0  0  0  0  0  0  0  0  0  0  0  0
    3.3523   -1.1104    0.0000 C   0  0  0  0  0  0  0  0  0  0  0  0
    4.0668   -1.5229    0.0000 C   0  0  0  0  0  0  0  0  0  0  0  0
    2.6378   -1.5229    0.0000 N   0  0  0  0  0  0  0  0  0  0  0  0
    1.9233   -1.1104    0.0000 C   0  0  0  0  0  0  0  0  0  0  0  0
  1  2  1  0  0  0  0
  2  3  1  0  0  0  0
  3  4  1  0  0  0  0
  4  5  2  0  0  0  0
  5  6  1  0  0  0  0
  6  7  2  0  0  0  0
  7  8  1  0  0  0  0
  8  9  1  0  0  0  0
  9 10  1  0  0  0  0
 10 11  1  0  0  0  0
 11 12  1  0  0  0  0
 12 13  1  0  0  0  0
 13 14  1  0  0  0  0
  9 14  1  0  0  0  0
  7 15  1  0  0  0  0
 15 16  1  0  0  0  0
 16 17  1  0  0  0  0
 17 18  1  0  0  0  0
 18 19  2  0  0  0  0
 18 20  1  0  0  0  0
 20 21  2  0  0  0  0
 21 22  1  0  0  0  0
 22 23  2  0  0  0  0
 23 24  1  0  0  0  0
 20 24  1  0  0  0  0
 24 25  1  0  0  0  0
 15 26  2  0  0  0  0
 26 27  1  0  0  0  0
 26 28  1  0  0  0  0
 28 29  2  0  0  0  0
  3 29  1  0  0  0  0
  6 29  1  0  0  0  0
M  END
> <COMPOUND_ID>
MMV026356

$$$$

  Mrv0541 04191616472D          

 22 25  0  0  0  0            999 V2000
   -0.1712   -2.1269    0.0000 N   0  0  0  0  0  0  0  0  0  0  0  0
   -0.5837   -1.4124    0.0000 C   0  0  0  0  0  0  0  0  0  0  0  0
   -1.4087   -1.4124    0.0000 N   0  0  0  0  0  0  0  0  0  0  0  0
   -1.8212   -0.6979    0.0000 C   0  0  0  0  0  0  0  0  0  0  0  0
   -1.4087    0.0165    0.0000 C   0  0  0  0  0  0  0  0  0  0  0  0
   -0.5837    0.0165    0.0000 C   0  0  0  0  0  0  0  0  0  0  0  0
   -0.1712   -0.6979    0.0000 C   0  0  0  0  0  0  0  0  0  0  0  0
    0.6538   -0.6979    0.0000 C   0  0  0  0  0  0  0  0  0  0  0  0
    1.1387   -0.0305    0.0000 N   0  0  0  0  0  0  0  0  0  0  0  0
    1.9233   -0.2854    0.0000 C   0  0  0  0  0  0  0  0  0  0  0  0
    2.6378    0.1271    0.0000 C   0  0  0  0  0  0  0  0  0  0  0  0
    3.3523   -0.2854    0.0000 C   0  0  0  0  0  0  0  0  0  0  0  0
    4.0668    0.1271    0.0000 Cl  0  0  0  0  0  0  0  0  0  0  0  0
    3.3523   -1.1104    0.0000 C   0  0  0  0  0  0  0  0  0  0  0  0
    2.6378   -1.5229    0.0000 N   0  0  0  0  0  0  0  0  0  0  0  0
    1.9233   -1.1104    0.0000 C   0  0  0  0  0  0  0  0  0  0  0  0
    1.1387   -1.3654    0.0000 N   0  0  0  0  0  0  0  0  0  0  0  0
   -1.8212    0.7310    0.0000 C   0  0  0  0  0  0  0  0  0  0  0  0
   -2.6417    0.8172    0.0000 C   0  0  0  0  0  0  0  0  0  0  0  0
   -2.8132    1.6242    0.0000 N   0  0  0  0  0  0  0  0  0  0  0  0
   -2.0987    2.0367    0.0000 N   0  0  0  0  0  0  0  0  0  0  0  0
   -1.4856    1.4847    0.0000 C   0  0  0  0  0  0  0  0  0  0  0  0
  1  2  1  0  0  0  0
  2  3  2  0  0  0  0
  3  4  1  0  0  0  0
  4  5  2  0  0  0  0
  5  6  1  0  0  0  0
  6  7  2  0  0  0  0
  2  7  1  0  0  0  0
  7  8  1  0  0  0  0
  8  9  2  0  0  0  0
  9 10  1  0  0  0  0
 10 11  2  0  0  0  0
 11 12  1  0  0  0  0
 12 13  1  0  0  0  0
 12 14  2  0  0  0  0
 14 15  1  0  0  0  0
 15 16  2  0  0  0  0
 10 16  1  0  0  0  0
 16 17  1  0  0  0  0
  8 17  1  0  0  0  0
  5 18  1  0  0  0  0
 18 19  1  0  0  0  0
 19 20  2  0  0  0  0
 20 21  1  0  0  0  0
 21 22  1  0  0  0  0
 18 22  2  0  0  0  0
M  END
> <COMPOUND_ID>
MMV023370

$$$$

  Mrv0541 04191616472D          

 31 33  0  0  0  0            999 V2000
   -2.9684   -3.9336    0.0000 C   0  0  0  0  0  0  0  0  0  0  0  0
   -2.1434   -3.9336    0.0000 C   0  0  0  0  0  0  0  0  0  0  0  0
   -1.7309   -4.6480    0.0000 N   0  0  0  0  0  0  0  0  0  0  0  0
   -2.1434   -5.3625    0.0000 C   0  0  0  0  0  0  0  0  0  0  0  0
   -2.9684   -5.3625    0.0000 C   0  0  0  0  0  0  0  0  0  0  0  0
   -0.9059   -4.6480    0.0000 C   0  0  0  0  0  0  0  0  0  0  0  0
   -0.4934   -5.3625    0.0000 C   0  0  0  0  0  0  0  0  0  0  0  0
    0.3316   -5.3625    0.0000 C   0  0  0  0  0  0  0  0  0  0  0  0
    0.7441   -6.0770    0.0000 N   0  0  0  0  0  0  0  0  0  0  0  0
    1.5691   -6.0770    0.0000 C   0  0  0  0  0  0  0  0  0  0  0  0
    1.9816   -6.7914    0.0000 C   0  0  0  0  0  0  0  0  0  0  0  0
    1.5691   -7.5059    0.0000 N   0  0  0  0  0  0  0  0  0  0  0  0
    0.7441   -7.5059    0.0000 C   0  0  0  0  0  0  0  0  0  0  0  0
    0.3316   -6.7914    0.0000 C   0  0  0  0  0  0  0  0  0  0  0  0
    1.9816   -8.2204    0.0000 C   0  0  0  0  0  0  0  0  0  0  0  0
    1.5691   -8.9349    0.0000 O   0  0  0  0  0  0  0  0  0  0  0  0
    2.8066   -8.2204    0.0000 C   0  0  0  0  0  0  0  0  0  0  0  0
    3.2191   -7.5059    0.0000 C   0  0  0  0  0  0  0  0  0  0  0  0
    4.0441   -7.5059    0.0000 C   0  0  0  0  0  0  0  0  0  0  0  0
    4.4566   -8.2204    0.0000 C   0  0  0  0  0  0  0  0  0  0  0  0
    4.0441   -8.9349    0.0000 C   0  0  0  0  0  0  0  0  0  0  0  0
    3.2191   -8.9349    0.0000 C   0  0  0  0  0  0  0  0  0  0  0  0
    4.4566   -9.6493    0.0000 C   0  0  0  0  0  0  0  0  0  0  0  0
    5.2771   -9.7356    0.0000 N   0  0  0  0  0  0  0  0  0  0  0  0
    5.4486  -10.5425    0.0000 O   0  0  0  0  0  0  0  0  0  0  0  0
    4.7341  -10.9550    0.0000 C   0  0  0  0  0  0  0  0  0  0  0  0
    4.1210  -10.4030    0.0000 N   0  0  0  0  0  0  0  0  0  0  0  0
    4.6479  -11.7755    0.0000 C   0  0  0  0  0  0  0  0  0  0  0  0
    4.5617  -12.5960    0.0000 F   0  0  0  0  0  0  0  0  0  0  0  0
    3.8274  -11.6893    0.0000 F   0  0  0  0  0  0  0  0  0  0  0  0
    5.4684  -11.8618    0.0000 F   0  0  0  0  0  0  0  0  0  0  0  0
  1  2  1  0  0  0  0
  2  3  1  0  0  0  0
  3  4  1  0  0  0  0
  4  5  1  0  0  0  0
  3  6  1  0  0  0  0
  6  7  1  0  0  0  0
  7  8  1  0  0  0  0
  8  9  1  0  0  0  0
  9 10  1  0  0  0  0
 10 11  1  0  0  0  0
 11 12  1  0  0  0  0
 12 13  1  0  0  0  0
 13 14  1  0  0  0  0
  9 14  1  0  0  0  0
 12 15  1  0  0  0  0
 15 16  2  0  0  0  0
 15 17  1  0  0  0  0
 17 18  2  0  0  0  0
 18 19  1  0  0  0  0
 19 20  2  0  0  0  0
 20 21  1  0  0  0  0
 21 22  2  0  0  0  0
 17 22  1  0  0  0  0
 21 23  1  0  0  0  0
 23 24  2  0  0  0  0
 24 25  1  0  0  0  0
 25 26  1  0  0  0  0
 26 27  2  0  0  0  0
 23 27  1  0  0  0  0
 26 28  1  0  0  0  0
 28 29  1  0  0  0  0
 28 30  1  0  0  0  0
 28 31  1  0  0  0  0
M  END
> <COMPOUND_ID>
MMV022236

$$$$

  Mrv0541 04191616472D          

 29 31  0  0  0  0            999 V2000
    3.5724   -2.0625    0.0000 F   0  0  0  0  0  0  0  0  0  0  0  0
    3.5724   -2.8875    0.0000 C   0  0  0  0  0  0  0  0  0  0  0  0
    2.7474   -2.8875    0.0000 F   0  0  0  0  0  0  0  0  0  0  0  0
    4.3974   -2.8875    0.0000 F   0  0  0  0  0  0  0  0  0  0  0  0
    3.5724   -3.7125    0.0000 C   0  0  0  0  0  0  0  0  0  0  0  0
    4.2868   -4.1250    0.0000 C   0  0  0  0  0  0  0  0  0  0  0  0
    4.2868   -4.9500    0.0000 C   0  0  0  0  0  0  0  0  0  0  0  0
    3.5724   -5.3625    0.0000 C   0  0  0  0  0  0  0  0  0  0  0  0
    2.8579   -4.9500    0.0000 C   0  0  0  0  0  0  0  0  0  0  0  0
    2.8579   -4.1250    0.0000 C   0  0  0  0  0  0  0  0  0  0  0  0
    2.1434   -5.3625    0.0000 C   0  0  0  0  0  0  0  0  0  0  0  0
    1.4289   -5.7750    0.0000 F   0  0  0  0  0  0  0  0  0  0  0  0
    1.7309   -4.6480    0.0000 F   0  0  0  0  0  0  0  0  0  0  0  0
    2.5559   -6.0770    0.0000 F   0  0  0  0  0  0  0  0  0  0  0  0
    5.0013   -5.3625    0.0000 C   0  0  0  0  0  0  0  0  0  0  0  0
    5.7158   -4.9500    0.0000 O   0  0  0  0  0  0  0  0  0  0  0  0
    5.0013   -6.1875    0.0000 N   0  0  0  0  0  0  0  0  0  0  0  0
    5.7158   -6.6000    0.0000 C   0  0  0  0  0  0  0  0  0  0  0  0
    6.4302   -6.1875    0.0000 C   0  0  0  0  0  0  0  0  0  0  0  0
    7.1447   -6.6000    0.0000 C   0  0  0  0  0  0  0  0  0  0  0  0
    7.1447   -7.4250    0.0000 N   0  0  0  0  0  0  0  0  0  0  0  0
    6.4302   -7.8375    0.0000 C   0  0  0  0  0  0  0  0  0  0  0  0
    5.7158   -7.4250    0.0000 N   0  0  0  0  0  0  0  0  0  0  0  0
    6.4302   -8.6625    0.0000 C   0  0  0  0  0  0  0  0  0  0  0  0
    7.1447   -9.0750    0.0000 C   0  0  0  0  0  0  0  0  0  0  0  0
    7.1447   -9.9000    0.0000 C   0  0  0  0  0  0  0  0  0  0  0  0
    6.4302  -10.3125    0.0000 C   0  0  0  0  0  0  0  0  0  0  0  0
    5.7158   -9.9000    0.0000 N   0  0  0  0  0  0  0  0  0  0  0  0
    5.7158   -9.0750    0.0000 C   0  0  0  0  0  0  0  0  0  0  0  0
  1  2  1  0  0  0  0
  2  3  1  0  0  0  0
  2  4  1  0  0  0  0
  2  5  1  0  0  0  0
  5  6  2  0  0  0  0
  6  7  1  0  0  0  0
  7  8  2  0  0  0  0
  8  9  1  0  0  0  0
  9 10  2  0  0  0  0
  5 10  1  0  0  0  0
  9 11  1  0  0  0  0
 11 12  1  0  0  0  0
 11 13  1  0  0  0  0
 11 14  1  0  0  0  0
  7 15  1  0  0  0  0
 15 16  2  0  0  0  0
 15 17  1  0  0  0  0
 17 18  1  0  0  0  0
 18 19  2  0  0  0  0
 19 20  1  0  0  0  0
 20 21  2  0  0  0  0
 21 22  1  0  0  0  0
 22 23  2  0  0  0  0
 18 23  1  0  0  0  0
 22 24  1  0  0  0  0
 24 25  2  0  0  0  0
 25 26  1  0  0  0  0
 26 27  2  0  0  0  0
 27 28  1  0  0  0  0
 28 29  2  0  0  0  0
 24 29  1  0  0  0  0
M  END
> <COMPOUND_ID>
MMV019838

$$$$

  Mrv0541 04191616472D          

 26 28  0  0  0  0            999 V2000
   -0.7145    4.5375    0.0000 C   0  0  0  0  0  0  0  0  0  0  0  0
   -0.7145    3.7125    0.0000 C   0  0  0  0  0  0  0  0  0  0  0  0
   -1.4289    3.3000    0.0000 O   0  0  0  0  0  0  0  0  0  0  0  0
    0.0000    3.3000    0.0000 N   0  0  0  0  0  0  0  0  0  0  0  0
    0.0000    2.4750    0.0000 C   0  0  0  0  0  0  0  0  0  0  0  0
    0.7145    2.0625    0.0000 C   0  0  0  0  0  0  0  0  0  0  0  0
    0.7145    1.2375    0.0000 C   0  0  0  0  0  0  0  0  0  0  0  0
    0.0000    0.8250    0.0000 C   0  0  0  0  0  0  0  0  0  0  0  0
    0.0000   -0.0000    0.0000 N   0  0  0  0  0  0  0  0  0  0  0  0
    0.7145   -0.4125    0.0000 C   0  0  0  0  0  0  0  0  0  0  0  0
    1.4289   -0.0000    0.0000 O   0  0  0  0  0  0  0  0  0  0  0  0
    0.7145   -1.2375    0.0000 C   0  0  0  0  0  0  0  0  0  0  0  0
    1.3819   -1.7224    0.0000 C   0  0  0  0  0  0  0  0  0  0  0  0
    1.1270   -2.5070    0.0000 C   0  0  0  0  0  0  0  0  0  0  0  0
    0.3020   -2.5070    0.0000 N   0  0  0  0  0  0  0  0  0  0  0  0
    0.0470   -1.7224    0.0000 N   0  0  0  0  0  0  0  0  0  0  0  0
    1.6119   -3.1745    0.0000 C   0  0  0  0  0  0  0  0  0  0  0  0
    2.4324   -3.0882    0.0000 C   0  0  0  0  0  0  0  0  0  0  0  0
    2.9173   -3.7557    0.0000 C   0  0  0  0  0  0  0  0  0  0  0  0
    3.7378   -3.6695    0.0000 Cl  0  0  0  0  0  0  0  0  0  0  0  0
    2.5817   -4.5094    0.0000 C   0  0  0  0  0  0  0  0  0  0  0  0
    1.7613   -4.5956    0.0000 C   0  0  0  0  0  0  0  0  0  0  0  0
    1.2763   -3.9282    0.0000 C   0  0  0  0  0  0  0  0  0  0  0  0
    0.4559   -4.0144    0.0000 O   0  0  0  0  0  0  0  0  0  0  0  0
   -0.7145    1.2375    0.0000 C   0  0  0  0  0  0  0  0  0  0  0  0
   -0.7145    2.0625    0.0000 C   0  0  0  0  0  0  0  0  0  0  0  0
  1  2  1  0  0  0  0
  2  3  2  0  0  0  0
  2  4  1  0  0  0  0
  4  5  1  0  0  0  0
  5  6  2  0  0  0  0
  6  7  1  0  0  0  0
  7  8  2  0  0  0  0
  8  9  1  0  0  0  0
  9 10  1  0  0  0  0
 10 11  2  0  0  0  0
 10 12  1  0  0  0  0
 12 13  1  0  0  0  0
 13 14  2  0  0  0  0
 14 15  1  0  0  0  0
 15 16  1  0  0  0  0
 12 16  2  0  0  0  0
 14 17  1  0  0  0  0
 17 18  2  0  0  0  0
 18 19  1  0  0  0  0
 19 20  1  0  0  0  0
 19 21  2  0  0  0  0
 21 22  1  0  0  0  0
 22 23  2  0  0  0  0
 17 23  1  0  0  0  0
 23 24  1  0  0  0  0
  8 25  1  0  0  0  0
 25 26  2  0  0  0  0
  5 26  1  0  0  0  0
M  END
> <COMPOUND_ID>
MMV676380

$$$$

  Mrv0541 04191616472D          

 20 22  0  0  0  0            999 V2000
    2.5896   -2.9855    0.0000 C   0  0  0  0  0  0  0  0  0  0  0  0
    3.3041   -2.5730    0.0000 N   0  0  0  0  0  0  0  0  0  0  0  0
    3.3041   -1.7480    0.0000 C   0  0  0  0  0  0  0  0  0  0  0  0
    4.0186   -2.9855    0.0000 C   0  0  0  0  0  0  0  0  0  0  0  0
    4.7330   -2.5730    0.0000 C   0  0  0  0  0  0  0  0  0  0  0  0
    5.4475   -2.9855    0.0000 N   0  0  0  0  0  0  0  0  0  0  0  0
    6.1620   -2.5730    0.0000 C   0  0  0  0  0  0  0  0  0  0  0  0
    6.1620   -1.7480    0.0000 N   0  0  0  0  0  0  0  0  0  0  0  0
    6.8764   -1.3355    0.0000 C   0  0  0  0  0  0  0  0  0  0  0  0
    7.5909   -1.7480    0.0000 N   0  0  0  0  0  0  0  0  0  0  0  0
    7.5909   -2.5730    0.0000 C   0  0  0  0  0  0  0  0  0  0  0  0
    8.2040   -3.1251    0.0000 C   0  0  0  0  0  0  0  0  0  0  0  0
    9.0245   -3.0388    0.0000 C   0  0  0  0  0  0  0  0  0  0  0  0
    9.5094   -3.7063    0.0000 C   0  0  0  0  0  0  0  0  0  0  0  0
   10.3299   -3.6200    0.0000 C   0  0  0  0  0  0  0  0  0  0  0  0
    9.1739   -4.4599    0.0000 C   0  0  0  0  0  0  0  0  0  0  0  0
    8.3534   -4.5462    0.0000 C   0  0  0  0  0  0  0  0  0  0  0  0
    7.8684   -3.8787    0.0000 C   0  0  0  0  0  0  0  0  0  0  0  0
    7.0480   -3.7925    0.0000 N   0  0  0  0  0  0  0  0  0  0  0  0
    6.8764   -2.9855    0.0000 C   0  0  0  0  0  0  0  0  0  0  0  0
  1  2  1  0  0  0  0
  2  3  1  0  0  0  0
  2  4  1  0  0  0  0
  4  5  1  0  0  0  0
  5  6  1  0  0  0  0
  6  7  1  0  0  0  0
  7  8  2  0  0  0  0
  8  9  1  0  0  0  0
  9 10  2  0  0  0  0
 10 11  1  0  0  0  0
 11 12  1  0  0  0  0
 12 13  1  0  0  0  0
 13 14  2  0  0  0  0
 14 15  1  0  0  0  0
 14 16  1  0  0  0  0
 16 17  2  0  0  0  0
 17 18  1  0  0  0  0
 12 18  2  0  0  0  0
 18 19  1  0  0  0  0
 19 20  1  0  0  0  0
  7 20  1  0  0  0  0
 11 20  2  0  0  0  0
M  END
> <COMPOUND_ID>
MMV006372

$$$$

  Mrv0541 04191616472D          

 31 34  0  0  0  0            999 V2000
   -1.5356    7.3634    0.0000 C   0  0  0  0  0  0  0  0  0  0  0  0
   -0.8212    6.9509    0.0000 C   0  0  0  0  0  0  0  0  0  0  0  0
   -0.1067    7.3634    0.0000 C   0  0  0  0  0  0  0  0  0  0  0  0
    0.6078    6.9509    0.0000 C   0  0  0  0  0  0  0  0  0  0  0  0
    0.6078    6.1259    0.0000 C   0  0  0  0  0  0  0  0  0  0  0  0
    1.3222    5.7134    0.0000 O   0  0  0  0  0  0  0  0  0  0  0  0
    1.3222    4.8884    0.0000 C   0  0  0  0  0  0  0  0  0  0  0  0
    2.0367    4.4759    0.0000 C   0  0  0  0  0  0  0  0  0  0  0  0
    2.0367    3.6509    0.0000 C   0  0  0  0  0  0  0  0  0  0  0  0
    1.3222    3.2384    0.0000 C   0  0  0  0  0  0  0  0  0  0  0  0
    1.3222    2.4134    0.0000 N   0  0  0  0  0  0  0  0  0  0  0  0
    0.6078    2.0009    0.0000 C   0  0  0  0  0  0  0  0  0  0  0  0
   -0.1067    2.4134    0.0000 O   0  0  0  0  0  0  0  0  0  0  0  0
    0.6078    1.1759    0.0000 C   0  0  0  0  0  0  0  0  0  0  0  0
    1.3222    0.7634    0.0000 N   0  0  0  0  0  0  0  0  0  0  0  0
    2.0367    1.1759    0.0000 C   0  0  0  0  0  0  0  0  0  0  0  0
    2.0367    2.0009    0.0000 C   0  0  0  0  0  0  0  0  0  0  0  0
    2.7512    2.4134    0.0000 C   0  0  0  0  0  0  0  0  0  0  0  0
    3.4656    2.0009    0.0000 C   0  0  0  0  0  0  0  0  0  0  0  0
    3.4656    1.1759    0.0000 C   0  0  0  0  0  0  0  0  0  0  0  0
    2.7512    0.7634    0.0000 C   0  0  0  0  0  0  0  0  0  0  0  0
    2.7512   -0.0616    0.0000 N   0  0  0  0  0  0  0  0  0  0  0  0
    3.4186   -0.5465    0.0000 C   0  0  0  0  0  0  0  0  0  0  0  0
    3.1637   -1.3312    0.0000 C   0  0  0  0  0  0  0  0  0  0  0  0
    2.3387   -1.3312    0.0000 C   0  0  0  0  0  0  0  0  0  0  0  0
    2.0837   -0.5465    0.0000 C   0  0  0  0  0  0  0  0  0  0  0  0
    1.2991   -0.2916    0.0000 O   0  0  0  0  0  0  0  0  0  0  0  0
    0.6078    3.6509    0.0000 C   0  0  0  0  0  0  0  0  0  0  0  0
    0.6078    4.4759    0.0000 C   0  0  0  0  0  0  0  0  0  0  0  0
   -0.1067    5.7134    0.0000 C   0  0  0  0  0  0  0  0  0  0  0  0
   -0.8212    6.1259    0.0000 C   0  0  0  0  0  0  0  0  0  0  0  0
  1  2  1  0  0  0  0
  2  3  2  0  0  0  0
  3  4  1  0  0  0  0
  4  5  2  0  0  0  0
  5  6  1  0  0  0  0
  6  7  1  0  0  0  0
  7  8  2  0  0  0  0
  8  9  1  0  0  0  0
  9 10  2  0  0  0  0
 10 11  1  0  0  0  0
 11 12  1  0  0  0  0
 12 13  2  0  0  0  0
 12 14  1  0  0  0  0
 14 15  1  0  0  0  0
 15 16  1  0  0  0  0
 16 17  2  0  0  0  0
 17 18  1  0  0  0  0
 18 19  2  0  0  0  0
 19 20  1  0  0  0  0
 20 21  2  0  0  0  0
 16 21  1  0  0  0  0
 21 22  1  0  0  0  0
 22 23  1  0  0  0  0
 23 24  1  0  0  0  0
 24 25  1  0  0  0  0
 25 26  1  0  0  0  0
 22 26  1  0  0  0  0
 26 27  2  0  0  0  0
 10 28  1  0  0  0  0
 28 29  2  0  0  0  0
  7 29  1  0  0  0  0
  5 30  1  0  0  0  0
 30 31  2  0  0  0  0
  2 31  1  0  0  0  0
M  END
> <COMPOUND_ID>
MMV020512

$$$$

  Mrv0541 04191616472D          

 28 30  0  0  0  0            999 V2000
    6.9246    6.4729    0.0000 C   0  0  0  0  0  0  0  0  0  0  0  0
    6.9246    5.6479    0.0000 C   0  0  0  0  0  0  0  0  0  0  0  0
    6.2102    5.2354    0.0000 N   0  0  0  0  0  0  0  0  0  0  0  0
    5.4957    5.6479    0.0000 C   0  0  0  0  0  0  0  0  0  0  0  0
    4.7812    5.2354    0.0000 C   0  0  0  0  0  0  0  0  0  0  0  0
    6.2102    4.4104    0.0000 S   0  0  0  0  0  0  0  0  0  0  0  0
    5.3852    4.4104    0.0000 O   0  0  0  0  0  0  0  0  0  0  0  0
    7.0352    4.4104    0.0000 O   0  0  0  0  0  0  0  0  0  0  0  0
    6.2102    3.5854    0.0000 C   0  0  0  0  0  0  0  0  0  0  0  0
    6.9246    3.1729    0.0000 C   0  0  0  0  0  0  0  0  0  0  0  0
    6.9246    2.3479    0.0000 C   0  0  0  0  0  0  0  0  0  0  0  0
    6.2102    1.9354    0.0000 C   0  0  0  0  0  0  0  0  0  0  0  0
    6.2102    1.1104    0.0000 Cl  0  0  0  0  0  0  0  0  0  0  0  0
    5.4957    2.3479    0.0000 C   0  0  0  0  0  0  0  0  0  0  0  0
    5.4957    3.1729    0.0000 C   0  0  0  0  0  0  0  0  0  0  0  0
    4.7812    1.9354    0.0000 C   0  0  0  0  0  0  0  0  0  0  0  0
    4.7812    1.1104    0.0000 O   0  0  0  0  0  0  0  0  0  0  0  0
    4.0668    2.3479    0.0000 N   0  0  0  0  0  0  0  0  0  0  0  0
    3.3523    1.9354    0.0000 C   0  0  0  0  0  0  0  0  0  0  0  0
    3.3523    1.1104    0.0000 C   0  0  0  0  0  0  0  0  0  0  0  0
    2.6378    0.6979    0.0000 C   0  0  0  0  0  0  0  0  0  0  0  0
    1.9233    1.1104    0.0000 C   0  0  0  0  0  0  0  0  0  0  0  0
    1.1387    0.8555    0.0000 N   0  0  0  0  0  0  0  0  0  0  0  0
    0.6538    1.5229    0.0000 C   0  0  0  0  0  0  0  0  0  0  0  0
   -0.1712    1.5229    0.0000 C   0  0  0  0  0  0  0  0  0  0  0  0
    1.1387    2.1904    0.0000 S   0  0  0  0  0  0  0  0  0  0  0  0
    1.9233    1.9354    0.0000 C   0  0  0  0  0  0  0  0  0  0  0  0
    2.6378    2.3479    0.0000 C   0  0  0  0  0  0  0  0  0  0  0  0
  1  2  1  0  0  0  0
  2  3  1  0  0  0  0
  3  4  1  0  0  0  0
  4  5  1  0  0  0  0
  3  6  1  0  0  0  0
  6  7  2  0  0  0  0
  6  8  2  0  0  0  0
  6  9  1  0  0  0  0
  9 10  2  0  0  0  0
 10 11  1  0  0  0  0
 11 12  2  0  0  0  0
 12 13  1  0  0  0  0
 12 14  1  0  0  0  0
 14 15  2  0  0  0  0
  9 15  1  0  0  0  0
 14 16  1  0  0  0  0
 16 17  2  0  0  0  0
 16 18  1  0  0  0  0
 18 19  1  0  0  0  0
 19 20  2  0  0  0  0
 20 21  1  0  0  0  0
 21 22  2  0  0  0  0
 22 23  1  0  0  0  0
 23 24  2  0  0  0  0
 24 25  1  0  0  0  0
 24 26  1  0  0  0  0
 26 27  1  0  0  0  0
 22 27  1  0  0  0  0
 27 28  2  0  0  0  0
 19 28  1  0  0  0  0
M  END
> <COMPOUND_ID>
MMV019721

$$$$

  Mrv0541 04191616472D          

 27 30  0  0  0  0            999 V2000
   -0.0000    7.1786    0.0000 C   0  0  0  0  0  0  0  0  0  0  0  0
    0.7145    6.7661    0.0000 O   0  0  0  0  0  0  0  0  0  0  0  0
    0.7145    5.9411    0.0000 C   0  0  0  0  0  0  0  0  0  0  0  0
    1.4289    5.5286    0.0000 C   0  0  0  0  0  0  0  0  0  0  0  0
    1.4289    4.7036    0.0000 C   0  0  0  0  0  0  0  0  0  0  0  0
    0.7145    4.2911    0.0000 C   0  0  0  0  0  0  0  0  0  0  0  0
    0.0000    4.7036    0.0000 C   0  0  0  0  0  0  0  0  0  0  0  0
   -0.0000    5.5286    0.0000 C   0  0  0  0  0  0  0  0  0  0  0  0
   -0.7145    5.9411    0.0000 O   0  0  0  0  0  0  0  0  0  0  0  0
   -0.7145    6.7661    0.0000 C   0  0  0  0  0  0  0  0  0  0  0  0
    0.7145    3.4661    0.0000 C   0  0  0  0  0  0  0  0  0  0  0  0
    1.3819    2.9812    0.0000 C   0  0  0  0  0  0  0  0  0  0  0  0
    1.1270    2.1965    0.0000 C   0  0  0  0  0  0  0  0  0  0  0  0
    0.3020    2.1965    0.0000 N   0  0  0  0  0  0  0  0  0  0  0  0
    0.0470    2.9812    0.0000 N   0  0  0  0  0  0  0  0  0  0  0  0
   -0.7376    3.2361    0.0000 C   0  0  0  0  0  0  0  0  0  0  0  0
   -0.9091    4.0431    0.0000 O   0  0  0  0  0  0  0  0  0  0  0  0
   -1.3507    2.6841    0.0000 C   0  0  0  0  0  0  0  0  0  0  0  0
   -1.2644    1.8636    0.0000 O   0  0  0  0  0  0  0  0  0  0  0  0
   -2.0181    1.5280    0.0000 C   0  0  0  0  0  0  0  0  0  0  0  0
   -2.5702    2.1411    0.0000 C   0  0  0  0  0  0  0  0  0  0  0  0
   -2.1577    2.8556    0.0000 C   0  0  0  0  0  0  0  0  0  0  0  0
    1.6119    1.5291    0.0000 C   0  0  0  0  0  0  0  0  0  0  0  0
    1.3570    0.7445    0.0000 C   0  0  0  0  0  0  0  0  0  0  0  0
    2.0244    0.2595    0.0000 C   0  0  0  0  0  0  0  0  0  0  0  0
    2.6918    0.7445    0.0000 C   0  0  0  0  0  0  0  0  0  0  0  0
    2.4369    1.5291    0.0000 S   0  0  0  0  0  0  0  0  0  0  0  0
  1  2  1  0  0  0  0
  2  3  1  0  0  0  0
  3  4  2  0  0  0  0
  4  5  1  0  0  0  0
  5  6  2  0  0  0  0
  6  7  1  0  0  0  0
  7  8  2  0  0  0  0
  3  8  1  0  0  0  0
  8  9  1  0  0  0  0
  9 10  1  0  0  0  0
  6 11  1  0  0  0  0
 11 12  1  0  0  0  0
 12 13  1  0  0  0  0
 13 14  2  0  0  0  0
 14 15  1  0  0  0  0
 11 15  1  0  0  0  0
 15 16  1  0  0  0  0
 16 17  2  0  0  0  0
 16 18  1  0  0  0  0
 18 19  1  0  0  0  0
 19 20  1  0  0  0  0
 20 21  2  0  0  0  0
 21 22  1  0  0  0  0
 18 22  2  0  0  0  0
 13 23  1  0  0  0  0
 23 24  2  0  0  0  0
 24 25  1  0  0  0  0
 25 26  2  0  0  0  0
 26 27  1  0  0  0  0
 23 27  1  0  0  0  0
M  END
> <COMPOUND_ID>
MMV019234

$$$$

  Mrv0541 04191616472D          

 23 26  0  0  0  0            999 V2000
    2.8579   -4.1250    0.0000 C   0  0  0  0  0  0  0  0  0  0  0  0
    3.5724   -3.7125    0.0000 C   0  0  0  0  0  0  0  0  0  0  0  0
    3.5724   -2.8875    0.0000 C   0  0  0  0  0  0  0  0  0  0  0  0
    4.2868   -2.4750    0.0000 C   0  0  0  0  0  0  0  0  0  0  0  0
    5.0013   -2.8875    0.0000 C   0  0  0  0  0  0  0  0  0  0  0  0
    5.7158   -2.4750    0.0000 C   0  0  0  0  0  0  0  0  0  0  0  0
    6.4302   -2.8875    0.0000 C   0  0  0  0  0  0  0  0  0  0  0  0
    7.1447   -2.4750    0.0000 C   0  0  0  0  0  0  0  0  0  0  0  0
    7.1447   -1.6500    0.0000 N   0  0  0  0  0  0  0  0  0  0  0  0
    7.8592   -1.2375    0.0000 C   0  0  0  0  0  0  0  0  0  0  0  0
    7.8592   -0.4125    0.0000 O   0  0  0  0  0  0  0  0  0  0  0  0
    8.5737   -1.6500    0.0000 C   0  0  0  0  0  0  0  0  0  0  0  0
    9.2881   -1.2375    0.0000 C   0  0  0  0  0  0  0  0  0  0  0  0
   10.0026   -1.6500    0.0000 C   0  0  0  0  0  0  0  0  0  0  0  0
   10.0026   -2.4750    0.0000 C   0  0  0  0  0  0  0  0  0  0  0  0
    9.2881   -2.8875    0.0000 C   0  0  0  0  0  0  0  0  0  0  0  0
    8.5737   -2.4750    0.0000 C   0  0  0  0  0  0  0  0  0  0  0  0
    7.8592   -2.8875    0.0000 N   0  0  0  0  0  0  0  0  0  0  0  0
    6.4302   -3.7125    0.0000 C   0  0  0  0  0  0  0  0  0  0  0  0
    7.1447   -4.1250    0.0000 Cl  0  0  0  0  0  0  0  0  0  0  0  0
    5.7158   -4.1250    0.0000 N   0  0  0  0  0  0  0  0  0  0  0  0
    5.0013   -3.7125    0.0000 C   0  0  0  0  0  0  0  0  0  0  0  0
    4.2868   -4.1250    0.0000 C   0  0  0  0  0  0  0  0  0  0  0  0
  1  2  1  0  0  0  0
  2  3  2  0  0  0  0
  3  4  1  0  0  0  0
  4  5  2  0  0  0  0
  5  6  1  0  0  0  0
  6  7  2  0  0  0  0
  7  8  1  0  0  0  0
  8  9  1  0  0  0  0
  9 10  1  0  0  0  0
 10 11  2  0  0  0  0
 10 12  1  0  0  0  0
 12 13  2  0  0  0  0
 13 14  1  0  0  0  0
 14 15  2  0  0  0  0
 15 16  1  0  0  0  0
 16 17  2  0  0  0  0
 12 17  1  0  0  0  0
 17 18  1  0  0  0  0
  8 18  1  0  0  0  0
  7 19  1  0  0  0  0
 19 20  1  0  0  0  0
 19 21  2  0  0  0  0
 21 22  1  0  0  0  0
  5 22  1  0  0  0  0
 22 23  2  0  0  0  0
  2 23  1  0  0  0  0
M  END
> <COMPOUND_ID>
MMV019807

$$$$

  Mrv0541 04191616472D          

 31 35  0  0  0  0            999 V2000
   -2.8762   -3.5789    0.0000 C   0  0  0  0  0  0  0  0  0  0  0  0
   -3.1311   -2.7943    0.0000 C   0  0  0  0  0  0  0  0  0  0  0  0
   -3.9157   -2.5394    0.0000 O   0  0  0  0  0  0  0  0  0  0  0  0
   -3.9157   -1.7144    0.0000 N   0  0  0  0  0  0  0  0  0  0  0  0
   -3.1311   -1.4594    0.0000 C   0  0  0  0  0  0  0  0  0  0  0  0
   -2.8762   -0.6748    0.0000 C   0  0  0  0  0  0  0  0  0  0  0  0
   -2.6462   -2.1269    0.0000 C   0  0  0  0  0  0  0  0  0  0  0  0
   -1.8212   -2.1269    0.0000 C   0  0  0  0  0  0  0  0  0  0  0  0
   -1.4087   -2.8414    0.0000 O   0  0  0  0  0  0  0  0  0  0  0  0
   -1.4087   -1.4124    0.0000 N   0  0  0  0  0  0  0  0  0  0  0  0
   -1.8212   -0.6979    0.0000 C   0  0  0  0  0  0  0  0  0  0  0  0
   -1.4087    0.0165    0.0000 C   0  0  0  0  0  0  0  0  0  0  0  0
   -0.5837    0.0165    0.0000 C   0  0  0  0  0  0  0  0  0  0  0  0
   -0.1712   -0.6979    0.0000 C   0  0  0  0  0  0  0  0  0  0  0  0
   -0.5837   -1.4124    0.0000 C   0  0  0  0  0  0  0  0  0  0  0  0
    0.6538   -0.6979    0.0000 C   0  0  0  0  0  0  0  0  0  0  0  0
    1.1387   -0.0305    0.0000 N   0  0  0  0  0  0  0  0  0  0  0  0
    1.9233   -0.2854    0.0000 C   0  0  0  0  0  0  0  0  0  0  0  0
    2.6378    0.1271    0.0000 C   0  0  0  0  0  0  0  0  0  0  0  0
    2.6378    0.9521    0.0000 C   0  0  0  0  0  0  0  0  0  0  0  0
    3.3523   -0.2854    0.0000 C   0  0  0  0  0  0  0  0  0  0  0  0
    3.3523   -1.1104    0.0000 C   0  0  0  0  0  0  0  0  0  0  0  0
    2.6378   -1.5229    0.0000 C   0  0  0  0  0  0  0  0  0  0  0  0
    1.9233   -1.1104    0.0000 C   0  0  0  0  0  0  0  0  0  0  0  0
    1.1387   -1.3654    0.0000 C   0  0  0  0  0  0  0  0  0  0  0  0
    0.8838   -2.1500    0.0000 C   0  0  0  0  0  0  0  0  0  0  0  0
    1.4358   -2.7631    0.0000 C   0  0  0  0  0  0  0  0  0  0  0  0
    1.1809   -3.5477    0.0000 C   0  0  0  0  0  0  0  0  0  0  0  0
    0.3739   -3.7192    0.0000 N   0  0  0  0  0  0  0  0  0  0  0  0
   -0.1781   -3.1062    0.0000 C   0  0  0  0  0  0  0  0  0  0  0  0
    0.0768   -2.3215    0.0000 C   0  0  0  0  0  0  0  0  0  0  0  0
  1  2  1  0  0  0  0
  2  3  1  0  0  0  0
  3  4  1  0  0  0  0
  4  5  2  0  0  0  0
  5  6  1  0  0  0  0
  5  7  1  0  0  0  0
  2  7  2  0  0  0  0
  7  8  1  0  0  0  0
  8  9  2  0  0  0  0
  8 10  1  0  0  0  0
 10 11  1  0  0  0  0
 11 12  1  0  0  0  0
 12 13  1  0  0  0  0
 13 14  1  0  0  0  0
 14 15  1  0  0  0  0
 10 15  1  0  0  0  0
 14 16  1  0  0  0  0
 16 17  1  0  0  0  0
 17 18  1  0  0  0  0
 18 19  2  0  0  0  0
 19 20  1  0  0  0  0
 19 21  1  0  0  0  0
 21 22  2  0  0  0  0
 22 23  1  0  0  0  0
 23 24  2  0  0  0  0
 18 24  1  0  0  0  0
 24 25  1  0  0  0  0
 16 25  2  0  0  0  0
 25 26  1  0  0  0  0
 26 27  2  0  0  0  0
 27 28  1  0  0  0  0
 28 29  2  0  0  0  0
 29 30  1  0  0  0  0
 30 31  2  0  0  0  0
 26 31  1  0  0  0  0
M  END
> <COMPOUND_ID>
MMV020623

$$$$

  Mrv0541 04191616472D          

 24 26  0  0  0  0            999 V2000
    0.0000   -2.4750    0.0000 C   0  0  0  0  0  0  0  0  0  0  0  0
    0.0000   -3.3000    0.0000 N   0  0  0  0  0  0  0  0  0  0  0  0
    0.7145   -3.7125    0.0000 C   0  0  0  0  0  0  0  0  0  0  0  0
    1.4289   -3.3000    0.0000 O   0  0  0  0  0  0  0  0  0  0  0  0
    0.7145   -4.5375    0.0000 C   0  0  0  0  0  0  0  0  0  0  0  0
    1.3819   -5.0224    0.0000 C   0  0  0  0  0  0  0  0  0  0  0  0
    1.1270   -5.8070    0.0000 C   0  0  0  0  0  0  0  0  0  0  0  0
    0.3020   -5.8070    0.0000 C   0  0  0  0  0  0  0  0  0  0  0  0
    0.0470   -5.0224    0.0000 S   0  0  0  0  0  0  0  0  0  0  0  0
    1.6119   -6.4745    0.0000 S   0  0  0  0  0  0  0  0  0  0  0  0
    0.9445   -6.9594    0.0000 O   0  0  0  0  0  0  0  0  0  0  0  0
    2.2793   -5.9896    0.0000 O   0  0  0  0  0  0  0  0  0  0  0  0
    2.0968   -7.1419    0.0000 N   0  0  0  0  0  0  0  0  0  0  0  0
    2.9173   -7.0557    0.0000 C   0  0  0  0  0  0  0  0  0  0  0  0
    3.4022   -7.7231    0.0000 C   0  0  0  0  0  0  0  0  0  0  0  0
    3.0667   -8.4768    0.0000 N   0  0  0  0  0  0  0  0  0  0  0  0
    2.2462   -8.5630    0.0000 C   0  0  0  0  0  0  0  0  0  0  0  0
    1.7613   -7.8956    0.0000 C   0  0  0  0  0  0  0  0  0  0  0  0
    3.5516   -9.1442    0.0000 C   0  0  0  0  0  0  0  0  0  0  0  0
    4.3721   -9.0580    0.0000 C   0  0  0  0  0  0  0  0  0  0  0  0
    4.8570   -9.7254    0.0000 C   0  0  0  0  0  0  0  0  0  0  0  0
    4.5214  -10.4791    0.0000 C   0  0  0  0  0  0  0  0  0  0  0  0
    3.7010  -10.5654    0.0000 C   0  0  0  0  0  0  0  0  0  0  0  0
    3.2160   -9.8979    0.0000 N   0  0  0  0  0  0  0  0  0  0  0  0
  1  2  1  0  0  0  0
  2  3  1  0  0  0  0
  3  4  2  0  0  0  0
  3  5  1  0  0  0  0
  5  6  2  0  0  0  0
  6  7  1  0  0  0  0
  7  8  2  0  0  0  0
  8  9  1  0  0  0  0
  5  9  1  0  0  0  0
  7 10  1  0  0  0  0
 10 11  2  0  0  0  0
 10 12  2  0  0  0  0
 10 13  1  0  0  0  0
 13 14  1  0  0  0  0
 14 15  1  0  0  0  0
 15 16  1  0  0  0  0
 16 17  1  0  0  0  0
 17 18  1  0  0  0  0
 13 18  1  0  0  0  0
 16 19  1  0  0  0  0
 19 20  2  0  0  0  0
 20 21  1  0  0  0  0
 21 22  2  0  0  0  0
 22 23  1  0  0  0  0
 23 24  2  0  0  0  0
 19 24  1  0  0  0  0
M  END
> <COMPOUND_ID>
MMV020136

$$$$

  Mrv0541 04191616472D          

 31 34  0  0  0  0            999 V2000
    4.2868   -2.4750    0.0000 C   0  0  0  0  0  0  0  0  0  0  0  0
    5.0013   -2.8875    0.0000 C   0  0  0  0  0  0  0  0  0  0  0  0
    5.7158   -2.4750    0.0000 C   0  0  0  0  0  0  0  0  0  0  0  0
    5.0013   -3.7125    0.0000 C   0  0  0  0  0  0  0  0  0  0  0  0
    5.7158   -4.1250    0.0000 N   0  0  0  0  0  0  0  0  0  0  0  0
    5.7158   -4.9500    0.0000 C   0  0  0  0  0  0  0  0  0  0  0  0
    5.0013   -5.3625    0.0000 C   0  0  0  0  0  0  0  0  0  0  0  0
    5.0013   -6.1875    0.0000 C   0  0  0  0  0  0  0  0  0  0  0  0
    5.7158   -6.6000    0.0000 C   0  0  0  0  0  0  0  0  0  0  0  0
    5.7158   -7.4250    0.0000 C   0  0  0  0  0  0  0  0  0  0  0  0
    5.0013   -7.8375    0.0000 N   0  0  0  0  0  0  0  0  0  0  0  0
    4.2868   -7.4250    0.0000 C   0  0  0  0  0  0  0  0  0  0  0  0
    4.2868   -6.6000    0.0000 C   0  0  0  0  0  0  0  0  0  0  0  0
    4.2868   -4.9500    0.0000 C   0  0  0  0  0  0  0  0  0  0  0  0
    4.2868   -4.1250    0.0000 N   0  0  0  0  0  0  0  0  0  0  0  0
    3.5724   -5.3625    0.0000 C   0  0  2  0  0  0  0  0  0  0  0  0
    3.5724   -6.1875    0.0000 C   0  0  0  0  0  0  0  0  0  0  0  0
    2.8579   -6.6000    0.0000 C   0  0  0  0  0  0  0  0  0  0  0  0
    2.1434   -6.1875    0.0000 C   0  0  1  0  0  0  0  0  0  0  0  0
    1.4289   -6.6000    0.0000 C   0  0  0  0  0  0  0  0  0  0  0  0
    0.7145   -6.1875    0.0000 N   0  0  0  0  0  0  0  0  0  0  0  0
    0.0000   -6.6000    0.0000 C   0  0  0  0  0  0  0  0  0  0  0  0
    0.0000   -7.4250    0.0000 O   0  0  0  0  0  0  0  0  0  0  0  0
   -0.7145   -6.1875    0.0000 C   0  0  0  0  0  0  0  0  0  0  0  0
   -1.4289   -6.6000    0.0000 C   0  0  0  0  0  0  0  0  0  0  0  0
   -2.1434   -6.1875    0.0000 C   0  0  0  0  0  0  0  0  0  0  0  0
   -2.1434   -5.3625    0.0000 C   0  0  0  0  0  0  0  0  0  0  0  0
   -1.4289   -4.9500    0.0000 N   0  0  0  0  0  0  0  0  0  0  0  0
   -0.7145   -5.3625    0.0000 C   0  0  0  0  0  0  0  0  0  0  0  0
    2.1434   -5.3625    0.0000 C   0  0  0  0  0  0  0  0  0  0  0  0
    2.8579   -4.9500    0.0000 C   0  0  0  0  0  0  0  0  0  0  0  0
  1  2  1  0  0  0  0
  2  3  1  0  0  0  0
  2  4  1  0  0  0  0
  4  5  2  0  0  0  0
  5  6  1  0  0  0  0
  6  7  2  0  0  0  0
  7  8  1  0  0  0  0
  8  9  2  0  0  0  0
  9 10  1  0  0  0  0
 10 11  2  0  0  0  0
 11 12  1  0  0  0  0
 12 13  2  0  0  0  0
  8 13  1  0  0  0  0
  7 14  1  0  0  0  0
 14 15  2  0  0  0  0
  4 15  1  0  0  0  0
 16 14  1  6  0  0  0
 16 17  1  0  0  0  0
 17 18  1  0  0  0  0
 18 19  1  0  0  0  0
 19 20  1  1  0  0  0
 20 21  1  0  0  0  0
 21 22  1  0  0  0  0
 22 23  2  0  0  0  0
 22 24  1  0  0  0  0
 24 25  2  0  0  0  0
 25 26  1  0  0  0  0
 26 27  2  0  0  0  0
 27 28  1  0  0  0  0
 28 29  2  0  0  0  0
 24 29  1  0  0  0  0
 19 30  1  0  0  0  0
 30 31  1  0  0  0  0
 16 31  1  0  0  0  0
M  END
> <COMPOUND_ID>
MMV676442

$$$$

  Mrv0541 04191616472D          

 25 28  0  0  0  0            999 V2000
   -6.3587   -1.4124    0.0000 N   0  0  0  0  0  0  0  0  0  0  0  0
   -5.5337   -1.4124    0.0000 C   0  0  0  0  0  0  0  0  0  0  0  0
   -5.1212   -0.6979    0.0000 C   0  0  0  0  0  0  0  0  0  0  0  0
   -4.2962   -0.6979    0.0000 C   0  0  0  0  0  0  0  0  0  0  0  0
   -3.8837   -1.4124    0.0000 C   0  0  0  0  0  0  0  0  0  0  0  0
   -4.2962   -2.1269    0.0000 C   0  0  0  0  0  0  0  0  0  0  0  0
   -5.1212   -2.1269    0.0000 C   0  0  0  0  0  0  0  0  0  0  0  0
   -3.0587   -1.4124    0.0000 C   0  0  0  0  0  0  0  0  0  0  0  0
   -2.6462   -2.1269    0.0000 O   0  0  0  0  0  0  0  0  0  0  0  0
   -2.6462   -0.6979    0.0000 N   0  0  0  0  0  0  0  0  0  0  0  0
   -1.8212   -0.6979    0.0000 C   0  0  0  0  0  0  0  0  0  0  0  0
   -1.4087    0.0165    0.0000 C   0  0  0  0  0  0  0  0  0  0  0  0
   -0.5837    0.0165    0.0000 C   0  0  0  0  0  0  0  0  0  0  0  0
   -0.1712   -0.6979    0.0000 C   0  0  0  0  0  0  0  0  0  0  0  0
   -0.5837   -1.4124    0.0000 C   0  0  0  0  0  0  0  0  0  0  0  0
   -1.4087   -1.4124    0.0000 C   0  0  0  0  0  0  0  0  0  0  0  0
    0.6538   -0.6979    0.0000 C   0  0  0  0  0  0  0  0  0  0  0  0
    1.1387   -0.0305    0.0000 O   0  0  0  0  0  0  0  0  0  0  0  0
    1.9233   -0.2854    0.0000 C   0  0  0  0  0  0  0  0  0  0  0  0
    2.6378    0.1271    0.0000 C   0  0  0  0  0  0  0  0  0  0  0  0
    3.3523   -0.2854    0.0000 C   0  0  0  0  0  0  0  0  0  0  0  0
    3.3523   -1.1104    0.0000 C   0  0  0  0  0  0  0  0  0  0  0  0
    2.6378   -1.5229    0.0000 C   0  0  0  0  0  0  0  0  0  0  0  0
    1.9233   -1.1104    0.0000 C   0  0  0  0  0  0  0  0  0  0  0  0
    1.1387   -1.3654    0.0000 N   0  0  0  0  0  0  0  0  0  0  0  0
  1  2  1  0  0  0  0
  2  3  2  0  0  0  0
  3  4  1  0  0  0  0
  4  5  2  0  0  0  0
  5  6  1  0  0  0  0
  6  7  2  0  0  0  0
  2  7  1  0  0  0  0
  5  8  1  0  0  0  0
  8  9  2  0  0  0  0
  8 10  1  0  0  0  0
 10 11  1  0  0  0  0
 11 12  2  0  0  0  0
 12 13  1  0  0  0  0
 13 14  2  0  0  0  0
 14 15  1  0  0  0  0
 15 16  2  0  0  0  0
 11 16  1  0  0  0  0
 14 17  1  0  0  0  0
 17 18  1  0  0  0  0
 18 19  1  0  0  0  0
 19 20  2  0  0  0  0
 20 21  1  0  0  0  0
 21 22  2  0  0  0  0
 22 23  1  0  0  0  0
 23 24  2  0  0  0  0
 19 24  1  0  0  0  0
 24 25  1  0  0  0  0
 17 25  2  0  0  0  0
M  END
> <COMPOUND_ID>
MMV007920

$$$$

  Mrv0541 04191616472D          

 22 25  0  0  0  0            999 V2000
    4.2249    2.3398    0.0000 C   0  0  0  0  0  0  0  0  0  0  0  0
    3.4077    2.4529    0.0000 C   0  0  0  0  0  0  0  0  0  0  0  0
    2.9011    1.8017    0.0000 C   0  0  0  0  0  0  0  0  0  0  0  0
    2.0839    1.9148    0.0000 C   0  0  0  0  0  0  0  0  0  0  0  0
    1.7732    2.6791    0.0000 C   0  0  0  0  0  0  0  0  0  0  0  0
    2.2798    3.3303    0.0000 C   0  0  0  0  0  0  0  0  0  0  0  0
    1.8170    4.0133    0.0000 N   0  0  0  0  0  0  0  0  0  0  0  0
    1.0245    3.7842    0.0000 C   0  0  0  0  0  0  0  0  0  0  0  0
    0.3733    4.2908    0.0000 O   0  0  0  0  0  0  0  0  0  0  0  0
    0.9974    2.9597    0.0000 C   0  0  0  0  0  0  0  0  0  0  0  0
    0.9703    2.1351    0.0000 N   0  0  0  0  0  0  0  0  0  0  0  0
    0.1778    1.9060    0.0000 N   0  0  0  0  0  0  0  0  0  0  0  0
   -0.2850    2.5890    0.0000 C   0  0  0  0  0  0  0  0  0  0  0  0
    0.2216    3.2402    0.0000 S   0  0  0  0  0  0  0  0  0  0  0  0
   -1.1096    2.6161    0.0000 C   0  0  0  0  0  0  0  0  0  0  0  0
   -1.5453    1.9155    0.0000 C   0  0  0  0  0  0  0  0  0  0  0  0
   -2.3698    1.9426    0.0000 C   0  0  0  0  0  0  0  0  0  0  0  0
   -2.7587    2.6702    0.0000 C   0  0  0  0  0  0  0  0  0  0  0  0
   -2.3229    3.3708    0.0000 C   0  0  0  0  0  0  0  0  0  0  0  0
   -1.4984    3.3437    0.0000 C   0  0  0  0  0  0  0  0  0  0  0  0
    3.0970    3.2172    0.0000 C   0  0  0  0  0  0  0  0  0  0  0  0
    3.6036    3.8683    0.0000 C   0  0  0  0  0  0  0  0  0  0  0  0
  1  2  1  0  0  0  0
  2  3  2  0  0  0  0
  3  4  1  0  0  0  0
  4  5  2  0  0  0  0
  5  6  1  0  0  0  0
  6  7  1  0  0  0  0
  7  8  1  0  0  0  0
  8  9  2  0  0  0  0
  8 10  1  0  0  0  0
  5 10  1  0  0  0  0
 10 11  1  0  0  0  0
 11 12  1  0  0  0  0
 12 13  2  0  0  0  0
 13 14  1  0  0  0  0
 10 14  1  0  0  0  0
 13 15  1  0  0  0  0
 15 16  2  0  0  0  0
 16 17  1  0  0  0  0
 17 18  2  0  0  0  0
 18 19  1  0  0  0  0
 19 20  2  0  0  0  0
 15 20  1  0  0  0  0
  6 21  2  0  0  0  0
  2 21  1  0  0  0  0
 21 22  1  0  0  0  0
M  END
> <COMPOUND_ID>
MMV019189

$$$$

  Mrv0541 04191616472D          

 26 29  0  0  0  0            999 V2000
   -2.7735   -4.0930    0.0000 C   0  0  0  0  0  0  0  0  0  0  0  0
   -2.7735   -4.9180    0.0000 C   0  0  0  0  0  0  0  0  0  0  0  0
   -2.3610   -5.6325    0.0000 C   0  0  0  0  0  0  0  0  0  0  0  0
   -3.1860   -5.6325    0.0000 C   0  0  0  0  0  0  0  0  0  0  0  0
   -3.9005   -6.0450    0.0000 C   0  0  0  0  0  0  0  0  0  0  0  0
   -4.6149   -5.6325    0.0000 O   0  0  0  0  0  0  0  0  0  0  0  0
   -3.9005   -6.8700    0.0000 N   0  0  0  0  0  0  0  0  0  0  0  0
   -4.6149   -7.2825    0.0000 C   0  0  0  0  0  0  0  0  0  0  0  0
   -4.6149   -8.1075    0.0000 C   0  0  0  0  0  0  0  0  0  0  0  0
   -5.3294   -8.5200    0.0000 C   0  0  0  0  0  0  0  0  0  0  0  0
   -6.0439   -8.1075    0.0000 N   0  0  0  0  0  0  0  0  0  0  0  0
   -6.7584   -8.5200    0.0000 C   0  0  0  0  0  0  0  0  0  0  0  0
   -7.4728   -8.1075    0.0000 C   0  0  0  0  0  0  0  0  0  0  0  0
   -8.2853   -7.9642    0.0000 C   0  0  0  0  0  0  0  0  0  0  0  0
   -8.5675   -7.1889    0.0000 C   0  0  0  0  0  0  0  0  0  0  0  0
   -8.0372   -6.5570    0.0000 C   0  0  0  0  0  0  0  0  0  0  0  0
   -7.2247   -6.7002    0.0000 C   0  0  0  0  0  0  0  0  0  0  0  0
   -6.9425   -7.4755    0.0000 C   0  0  0  0  0  0  0  0  0  0  0  0
   -7.7550   -8.8827    0.0000 C   0  0  0  0  0  0  0  0  0  0  0  0
   -7.2247   -9.5147    0.0000 C   0  0  0  0  0  0  0  0  0  0  0  0
   -7.5069  -10.2899    0.0000 C   0  0  0  0  0  0  0  0  0  0  0  0
   -8.3193  -10.4332    0.0000 C   0  0  0  0  0  0  0  0  0  0  0  0
   -8.8496   -9.8012    0.0000 C   0  0  0  0  0  0  0  0  0  0  0  0
   -8.5675   -9.0260    0.0000 C   0  0  0  0  0  0  0  0  0  0  0  0
   -6.0439   -7.2825    0.0000 C   0  0  0  0  0  0  0  0  0  0  0  0
   -5.3294   -6.8700    0.0000 C   0  0  0  0  0  0  0  0  0  0  0  0
  1  2  1  0  0  0  0
  2  3  1  0  0  0  0
  3  4  1  0  0  0  0
  2  4  1  0  0  0  0
  4  5  1  0  0  0  0
  5  6  2  0  0  0  0
  5  7  1  0  0  0  0
  7  8  1  0  0  0  0
  8  9  1  0  0  0  0
  9 10  1  0  0  0  0
 10 11  1  0  0  0  0
 11 12  1  0  0  0  0
 12 13  1  0  0  0  0
 13 14  1  0  0  0  0
 14 15  1  0  0  0  0
 15 16  1  0  0  0  0
 16 17  1  0  0  0  0
 17 18  1  0  0  0  0
 13 18  1  0  0  0  0
 13 19  1  0  0  0  0
 19 20  2  0  0  0  0
 20 21  1  0  0  0  0
 21 22  2  0  0  0  0
 22 23  1  0  0  0  0
 23 24  2  0  0  0  0
 19 24  1  0  0  0  0
 11 25  1  0  0  0  0
 25 26  1  0  0  0  0
  8 26  1  0  0  0  0
M  END
> <COMPOUND_ID>
MMV020120

$$$$

  Mrv0541 04191616472D          

 23 25  0  0  0  0            999 V2000
    0.0000   -2.4750    0.0000 C   0  0  0  0  0  0  0  0  0  0  0  0
    0.0000   -1.6500    0.0000 N   0  0  0  0  0  0  0  0  0  0  0  0
   -0.7145   -1.2375    0.0000 C   0  0  0  0  0  0  0  0  0  0  0  0
    0.7145   -1.2375    0.0000 C   0  0  0  0  0  0  0  0  0  0  0  0
    0.7145   -0.4125    0.0000 C   0  0  0  0  0  0  0  0  0  0  0  0
    1.4289    0.0000    0.0000 C   0  0  0  0  0  0  0  0  0  0  0  0
    1.4289    0.8250    0.0000 N   0  0  0  0  0  0  0  0  0  0  0  0
    2.1434    1.2375    0.0000 C   0  0  0  0  0  0  0  0  0  0  0  0
    2.8579    0.8250    0.0000 O   0  0  0  0  0  0  0  0  0  0  0  0
    2.1434    2.0625    0.0000 N   0  0  0  0  0  0  0  0  0  0  0  0
    2.8579    2.4750    0.0000 C   0  0  0  0  0  0  0  0  0  0  0  0
    2.8579    3.3000    0.0000 C   0  0  0  0  0  0  0  0  0  0  0  0
    3.5724    3.7125    0.0000 C   0  0  0  0  0  0  0  0  0  0  0  0
    4.2868    3.3000    0.0000 C   0  0  0  0  0  0  0  0  0  0  0  0
    4.2868    2.4750    0.0000 C   0  0  0  0  0  0  0  0  0  0  0  0
    3.5724    2.0625    0.0000 C   0  0  0  0  0  0  0  0  0  0  0  0
    2.1434   -0.4125    0.0000 C   0  0  0  0  0  0  0  0  0  0  0  0
    2.8579    0.0000    0.0000 C   0  0  0  0  0  0  0  0  0  0  0  0
    3.5724   -0.4125    0.0000 C   0  0  0  0  0  0  0  0  0  0  0  0
    3.5724   -1.2375    0.0000 C   0  0  0  0  0  0  0  0  0  0  0  0
    2.8579   -1.6500    0.0000 C   0  0  0  0  0  0  0  0  0  0  0  0
    2.1434   -1.2375    0.0000 C   0  0  0  0  0  0  0  0  0  0  0  0
    1.4289   -1.6500    0.0000 N   0  0  0  0  0  0  0  0  0  0  0  0
  1  2  1  0  0  0  0
  2  3  1  0  0  0  0
  2  4  1  0  0  0  0
  4  5  2  0  0  0  0
  5  6  1  0  0  0  0
  6  7  1  0  0  0  0
  7  8  1  0  0  0  0
  8  9  2  0  0  0  0
  8 10  1  0  0  0  0
 10 11  1  0  0  0  0
 11 12  2  0  0  0  0
 12 13  1  0  0  0  0
 13 14  2  0  0  0  0
 14 15  1  0  0  0  0
 15 16  2  0  0  0  0
 11 16  1  0  0  0  0
  6 17  2  0  0  0  0
 17 18  1  0  0  0  0
 18 19  2  0  0  0  0
 19 20  1  0  0  0  0
 20 21  2  0  0  0  0
 21 22  1  0  0  0  0
 17 22  1  0  0  0  0
 22 23  2  0  0  0  0
  4 23  1  0  0  0  0
M  END
> <COMPOUND_ID>
MMV006901

$$$$

  Mrv0541 04191616472D          

 28 31  0  0  0  0            999 V2000
   -0.7145   -0.4125    0.0000 C   0  0  0  0  0  0  0  0  0  0  0  0
    0.0000    0.0000    0.0000 O   0  0  0  0  0  0  0  0  0  0  0  0
    0.7145   -0.4125    0.0000 C   0  0  0  0  0  0  0  0  0  0  0  0
    1.4289    0.0000    0.0000 C   0  0  0  0  0  0  0  0  0  0  0  0
    2.1434   -0.4125    0.0000 C   0  0  0  0  0  0  0  0  0  0  0  0
    2.8579    0.0000    0.0000 N   0  0  0  0  0  0  0  0  0  0  0  0
    3.5724   -0.4125    0.0000 C   0  0  0  0  0  0  0  0  0  0  0  0
    3.5724   -1.2375    0.0000 N   0  0  0  0  0  0  0  0  0  0  0  0
    2.8579   -1.6500    0.0000 C   0  0  0  0  0  0  0  0  0  0  0  0
    2.8579   -2.4750    0.0000 N   0  0  0  0  0  0  0  0  0  0  0  0
    2.1434   -2.8875    0.0000 C   0  0  0  0  0  0  0  0  0  0  0  0
    2.1434   -3.7125    0.0000 C   0  0  0  0  0  0  0  0  0  0  0  0
    1.4289   -4.1250    0.0000 C   0  0  0  0  0  0  0  0  0  0  0  0
    0.7145   -3.7125    0.0000 N   0  0  0  0  0  0  0  0  0  0  0  0
   -0.0000   -4.1250    0.0000 C   0  0  0  0  0  0  0  0  0  0  0  0
   -0.7145   -3.7125    0.0000 C   0  0  0  0  0  0  0  0  0  0  0  0
   -1.4289   -4.1250    0.0000 C   0  0  0  0  0  0  0  0  0  0  0  0
   -2.1434   -3.7125    0.0000 C   0  0  0  0  0  0  0  0  0  0  0  0
   -2.1434   -2.8875    0.0000 C   0  0  0  0  0  0  0  0  0  0  0  0
   -1.4289   -2.4750    0.0000 C   0  0  0  0  0  0  0  0  0  0  0  0
   -0.7145   -2.8875    0.0000 C   0  0  0  0  0  0  0  0  0  0  0  0
    0.7145   -2.8875    0.0000 C   0  0  0  0  0  0  0  0  0  0  0  0
    1.4289   -2.4750    0.0000 C   0  0  0  0  0  0  0  0  0  0  0  0
    2.1434   -1.2375    0.0000 C   0  0  0  0  0  0  0  0  0  0  0  0
    1.4289   -1.6500    0.0000 C   0  0  0  0  0  0  0  0  0  0  0  0
    0.7145   -1.2375    0.0000 C   0  0  0  0  0  0  0  0  0  0  0  0
    0.0000   -1.6500    0.0000 O   0  0  0  0  0  0  0  0  0  0  0  0
   -0.7145   -1.2375    0.0000 C   0  0  0  0  0  0  0  0  0  0  0  0
  1  2  1  0  0  0  0
  2  3  1  0  0  0  0
  3  4  1  0  0  0  0
  4  5  2  0  0  0  0
  5  6  1  0  0  0  0
  6  7  2  0  0  0  0
  7  8  1  0  0  0  0
  8  9  2  0  0  0  0
  9 10  1  0  0  0  0
 10 11  1  0  0  0  0
 11 12  1  0  0  0  0
 12 13  1  0  0  0  0
 13 14  1  0  0  0  0
 14 15  1  0  0  0  0
 15 16  1  0  0  0  0
 16 17  2  0  0  0  0
 17 18  1  0  0  0  0
 18 19  2  0  0  0  0
 19 20  1  0  0  0  0
 20 21  2  0  0  0  0
 16 21  1  0  0  0  0
 14 22  1  0  0  0  0
 22 23  1  0  0  0  0
 11 23  1  0  0  0  0
  9 24  1  0  0  0  0
  5 24  1  0  0  0  0
 24 25  2  0  0  0  0
 25 26  1  0  0  0  0
  3 26  2  0  0  0  0
 26 27  1  0  0  0  0
 27 28  1  0  0  0  0
M  END
> <COMPOUND_ID>
MMV006741

$$$$

  Mrv0541 04191616472D          

 23 27  0  0  0  0            999 V2000
    1.7785   -4.7194    0.0000 Br  0  0  0  0  0  0  0  0  0  0  0  0
    2.3187   -4.0958    0.0000 C   0  0  0  0  0  0  0  0  0  0  0  0
    2.0487   -3.3163    0.0000 C   0  0  0  0  0  0  0  0  0  0  0  0
    2.5889   -2.6927    0.0000 C   0  0  0  0  0  0  0  0  0  0  0  0
    3.3990   -2.8486    0.0000 C   0  0  0  0  0  0  0  0  0  0  0  0
    4.0570   -2.3510    0.0000 N   0  0  0  0  0  0  0  0  0  0  0  0
    4.7336   -2.8230    0.0000 C   0  0  0  0  0  0  0  0  0  0  0  0
    5.5132   -2.5530    0.0000 O   0  0  0  0  0  0  0  0  0  0  0  0
    4.4938   -3.6124    0.0000 C   0  0  0  0  0  0  0  0  0  0  0  0
    4.1728   -4.3724    0.0000 N   0  0  0  0  0  0  0  0  0  0  0  0
    4.6705   -5.0303    0.0000 C   0  0  0  0  0  0  0  0  0  0  0  0
    5.4891   -4.9284    0.0000 C   0  0  0  0  0  0  0  0  0  0  0  0
    5.8101   -4.1684    0.0000 C   0  0  0  0  0  0  0  0  0  0  0  0
    5.3125   -3.5104    0.0000 C   0  0  0  0  0  0  0  0  0  0  0  0
    5.7845   -2.8337    0.0000 N   0  0  0  0  0  0  0  0  0  0  0  0
    6.5739   -3.0735    0.0000 C   0  0  0  0  0  0  0  0  0  0  0  0
    7.2803   -2.6474    0.0000 C   0  0  0  0  0  0  0  0  0  0  0  0
    8.0025   -3.0461    0.0000 C   0  0  0  0  0  0  0  0  0  0  0  0
    8.0184   -3.8709    0.0000 C   0  0  0  0  0  0  0  0  0  0  0  0
    7.3120   -4.2971    0.0000 C   0  0  0  0  0  0  0  0  0  0  0  0
    6.5897   -3.8984    0.0000 C   0  0  0  0  0  0  0  0  0  0  0  0
    3.6690   -3.6282    0.0000 C   0  0  0  0  0  0  0  0  0  0  0  0
    3.1288   -4.2518    0.0000 C   0  0  0  0  0  0  0  0  0  0  0  0
  1  2  1  0  0  0  0
  2  3  2  0  0  0  0
  3  4  1  0  0  0  0
  4  5  2  0  0  0  0
  5  6  1  0  0  0  0
  6  7  1  0  0  0  0
  7  8  2  0  0  0  0
  7  9  1  0  0  0  0
  9 10  1  0  0  0  0
 10 11  1  0  0  0  0
 11 12  1  0  0  0  0
 12 13  1  0  0  0  0
 13 14  2  0  0  0  0
  9 14  1  0  0  0  0
 14 15  1  0  0  0  0
 15 16  1  0  0  0  0
 16 17  2  0  0  0  0
 17 18  1  0  0  0  0
 18 19  2  0  0  0  0
 19 20  1  0  0  0  0
 20 21  2  0  0  0  0
 13 21  1  0  0  0  0
 16 21  1  0  0  0  0
  9 22  1  0  0  0  0
  5 22  1  0  0  0  0
 22 23  2  0  0  0  0
  2 23  1  0  0  0  0
M  END
> <COMPOUND_ID>
MMV006239

$$$$

  Mrv0541 04191616472D          

 28 30  0  0  0  0            999 V2000
    2.0367    1.1759    0.0000 C   0  0  0  0  0  0  0  0  0  0  0  0
    2.0367    0.3509    0.0000 C   0  0  0  0  0  0  0  0  0  0  0  0
    2.7512   -0.0616    0.0000 O   0  0  0  0  0  0  0  0  0  0  0  0
    2.7512   -0.8866    0.0000 C   0  0  0  0  0  0  0  0  0  0  0  0
    3.4656   -1.2991    0.0000 C   0  0  0  0  0  0  0  0  0  0  0  0
    3.4656   -2.1241    0.0000 C   0  0  0  0  0  0  0  0  0  0  0  0
    2.7512   -2.5366    0.0000 C   0  0  0  0  0  0  0  0  0  0  0  0
    2.0367   -2.1241    0.0000 C   0  0  0  0  0  0  0  0  0  0  0  0
    2.0367   -1.2991    0.0000 C   0  0  0  0  0  0  0  0  0  0  0  0
    2.7512   -3.3616    0.0000 C   0  0  0  0  0  0  0  0  0  0  0  0
    3.4186   -3.8465    0.0000 N   0  0  0  0  0  0  0  0  0  0  0  0
    3.1637   -4.6312    0.0000 C   0  0  0  0  0  0  0  0  0  0  0  0
    3.6486   -5.2986    0.0000 N   0  0  0  0  0  0  0  0  0  0  0  0
    3.3130   -6.0523    0.0000 C   0  0  0  0  0  0  0  0  0  0  0  0
    2.4926   -6.1385    0.0000 O   0  0  0  0  0  0  0  0  0  0  0  0
    3.7980   -6.7197    0.0000 C   0  0  0  0  0  0  0  0  0  0  0  0
    3.4624   -7.4734    0.0000 S   0  0  0  0  0  0  0  0  0  0  0  0
    2.7087   -7.1378    0.0000 O   0  0  0  0  0  0  0  0  0  0  0  0
    4.2161   -7.8089    0.0000 O   0  0  0  0  0  0  0  0  0  0  0  0
    3.1269   -8.2271    0.0000 C   0  0  0  0  0  0  0  0  0  0  0  0
    3.6118   -8.8945    0.0000 C   0  0  0  0  0  0  0  0  0  0  0  0
    3.2762   -9.6482    0.0000 C   0  0  0  0  0  0  0  0  0  0  0  0
    2.4557   -9.7344    0.0000 C   0  0  0  0  0  0  0  0  0  0  0  0
    1.9708   -9.0670    0.0000 C   0  0  0  0  0  0  0  0  0  0  0  0
    2.3064   -8.3133    0.0000 C   0  0  0  0  0  0  0  0  0  0  0  0
    2.3387   -4.6312    0.0000 S   0  0  0  0  0  0  0  0  0  0  0  0
    2.0837   -3.8465    0.0000 C   0  0  0  0  0  0  0  0  0  0  0  0
    1.2991   -3.5916    0.0000 C   0  0  0  0  0  0  0  0  0  0  0  0
  1  2  1  0  0  0  0
  2  3  1  0  0  0  0
  3  4  1  0  0  0  0
  4  5  2  0  0  0  0
  5  6  1  0  0  0  0
  6  7  2  0  0  0  0
  7  8  1  0  0  0  0
  8  9  2  0  0  0  0
  4  9  1  0  0  0  0
  7 10  1  0  0  0  0
 10 11  1  0  0  0  0
 11 12  2  0  0  0  0
 12 13  1  0  0  0  0
 13 14  1  0  0  0  0
 14 15  2  0  0  0  0
 14 16  1  0  0  0  0
 16 17  1  0  0  0  0
 17 18  2  0  0  0  0
 17 19  2  0  0  0  0
 17 20  1  0  0  0  0
 20 21  2  0  0  0  0
 21 22  1  0  0  0  0
 22 23  2  0  0  0  0
 23 24  1  0  0  0  0
 24 25  2  0  0  0  0
 20 25  1  0  0  0  0
 12 26  1  0  0  0  0
 26 27  1  0  0  0  0
 10 27  2  0  0  0  0
 27 28  1  0  0  0  0
M  END
> <COMPOUND_ID>
MMV007638

$$$$

  Mrv0541 04191616472D          

 22 25  0  0  0  0            999 V2000
    0.0000   -1.6500    0.0000 Cl  0  0  0  0  0  0  0  0  0  0  0  0
    0.7145   -1.2375    0.0000 C   0  0  0  0  0  0  0  0  0  0  0  0
    0.7145   -0.4125    0.0000 C   0  0  0  0  0  0  0  0  0  0  0  0
    1.4289    0.0000    0.0000 C   0  0  0  0  0  0  0  0  0  0  0  0
    2.1434   -0.4125    0.0000 C   0  0  0  0  0  0  0  0  0  0  0  0
    2.8579    0.0000    0.0000 O   0  0  0  0  0  0  0  0  0  0  0  0
    3.5724   -0.4125    0.0000 C   0  0  0  0  0  0  0  0  0  0  0  0
    3.5724   -1.2375    0.0000 C   0  0  0  0  0  0  0  0  0  0  0  0
    2.8579   -1.6500    0.0000 N   0  0  0  0  0  0  0  0  0  0  0  0
    2.8579   -2.4750    0.0000 C   0  0  0  0  0  0  0  0  0  0  0  0
    3.5253   -2.9599    0.0000 C   0  0  0  0  0  0  0  0  0  0  0  0
    3.2704   -3.7445    0.0000 C   0  0  0  0  0  0  0  0  0  0  0  0
    2.4454   -3.7445    0.0000 C   0  0  0  0  0  0  0  0  0  0  0  0
    2.1904   -2.9599    0.0000 S   0  0  0  0  0  0  0  0  0  0  0  0
    1.9605   -4.4120    0.0000 C   0  0  0  0  0  0  0  0  0  0  0  0
    1.1400   -4.3257    0.0000 O   0  0  0  0  0  0  0  0  0  0  0  0
    2.2960   -5.1657    0.0000 N   0  0  0  0  0  0  0  0  0  0  0  0
    1.8111   -5.8331    0.0000 C   0  0  0  0  0  0  0  0  0  0  0  0
    1.7249   -6.6536    0.0000 C   0  0  0  0  0  0  0  0  0  0  0  0
    1.0574   -6.1687    0.0000 C   0  0  0  0  0  0  0  0  0  0  0  0
    2.1434   -1.2375    0.0000 C   0  0  0  0  0  0  0  0  0  0  0  0
    1.4289   -1.6500    0.0000 C   0  0  0  0  0  0  0  0  0  0  0  0
  1  2  1  0  0  0  0
  2  3  2  0  0  0  0
  3  4  1  0  0  0  0
  4  5  2  0  0  0  0
  5  6  1  0  0  0  0
  6  7  1  0  0  0  0
  7  8  1  0  0  0  0
  8  9  1  0  0  0  0
  9 10  1  0  0  0  0
 10 11  2  0  0  0  0
 11 12  1  0  0  0  0
 12 13  2  0  0  0  0
 13 14  1  0  0  0  0
 10 14  1  0  0  0  0
 13 15  1  0  0  0  0
 15 16  2  0  0  0  0
 15 17  1  0  0  0  0
 17 18  1  0  0  0  0
 18 19  1  0  0  0  0
 19 20  1  0  0  0  0
 18 20  1  0  0  0  0
  9 21  1  0  0  0  0
  5 21  1  0  0  0  0
 21 22  2  0  0  0  0
  2 22  1  0  0  0  0
M  END
> <COMPOUND_ID>
MMV020537

$$$$

  Mrv0541 04191616472D          

 27 30  0  0  0  0            999 V2000
   -1.6244   -0.1667    0.0000 C   0  0  0  0  0  0  0  0  0  0  0  0
   -1.6244   -0.9917    0.0000 C   0  0  0  0  0  0  0  0  0  0  0  0
   -0.9570   -1.4766    0.0000 O   0  0  0  0  0  0  0  0  0  0  0  0
   -1.2119   -2.2612    0.0000 C   0  0  0  0  0  0  0  0  0  0  0  0
   -0.7270   -2.9287    0.0000 N   0  0  0  0  0  0  0  0  0  0  0  0
    0.0935   -2.8424    0.0000 C   0  0  0  0  0  0  0  0  0  0  0  0
    0.5784   -3.5099    0.0000 O   0  0  0  0  0  0  0  0  0  0  0  0
    0.4290   -2.0887    0.0000 C   0  0  0  0  0  0  0  0  0  0  0  0
    0.0165   -1.3743    0.0000 C   0  0  0  0  0  0  0  0  0  0  0  0
    0.5686   -0.7612    0.0000 N   0  0  0  0  0  0  0  0  0  0  0  0
    1.3222   -1.0967    0.0000 N   0  0  0  0  0  0  0  0  0  0  0  0
    1.2360   -1.9172    0.0000 C   0  0  0  0  0  0  0  0  0  0  0  0
    1.8491   -2.4692    0.0000 C   0  0  0  0  0  0  0  0  0  0  0  0
    1.6776   -3.2762    0.0000 C   0  0  0  0  0  0  0  0  0  0  0  0
    2.2907   -3.8283    0.0000 C   0  0  0  0  0  0  0  0  0  0  0  0
    3.0753   -3.5733    0.0000 C   0  0  0  0  0  0  0  0  0  0  0  0
    3.2468   -2.7663    0.0000 C   0  0  0  0  0  0  0  0  0  0  0  0
    2.6337   -2.2143    0.0000 C   0  0  0  0  0  0  0  0  0  0  0  0
    2.8052   -1.4073    0.0000 C   0  0  0  0  0  0  0  0  0  0  0  0
    0.3970    0.0458    0.0000 C   0  0  0  0  0  0  0  0  0  0  0  0
   -0.3876    0.3007    0.0000 C   0  0  0  0  0  0  0  0  0  0  0  0
   -0.5591    1.1077    0.0000 C   0  0  0  0  0  0  0  0  0  0  0  0
    0.0540    1.6597    0.0000 C   0  0  0  0  0  0  0  0  0  0  0  0
    0.8386    1.4048    0.0000 C   0  0  0  0  0  0  0  0  0  0  0  0
    1.0101    0.5978    0.0000 C   0  0  0  0  0  0  0  0  0  0  0  0
   -2.0369   -2.2612    0.0000 N   0  0  0  0  0  0  0  0  0  0  0  0
   -2.2919   -1.4766    0.0000 N   0  0  0  0  0  0  0  0  0  0  0  0
  1  2  1  0  0  0  0
  2  3  1  0  0  0  0
  3  4  1  0  0  0  0
  4  5  1  0  0  0  0
  5  6  1  0  0  0  0
  6  7  2  0  0  0  0
  6  8  1  0  0  0  0
  8  9  2  0  0  0  0
  9 10  1  0  0  0  0
 10 11  1  0  0  0  0
 11 12  2  0  0  0  0
  8 12  1  0  0  0  0
 12 13  1  0  0  0  0
 13 14  2  0  0  0  0
 14 15  1  0  0  0  0
 15 16  2  0  0  0  0
 16 17  1  0  0  0  0
 17 18  2  0  0  0  0
 13 18  1  0  0  0  0
 18 19  1  0  0  0  0
 10 20  1  0  0  0  0
 20 21  2  0  0  0  0
 21 22  1  0  0  0  0
 22 23  2  0  0  0  0
 23 24  1  0  0  0  0
 24 25  2  0  0  0  0
 20 25  1  0  0  0  0
  4 26  2  0  0  0  0
 26 27  1  0  0  0  0
  2 27  2  0  0  0  0
M  END
> <COMPOUND_ID>
MMV020320

$$$$

  Mrv0541 04191616472D          

 21 23  0  0  0  0            999 V2000
    1.4289   -4.1250    0.0000 C   0  0  0  0  0  0  0  0  0  0  0  0
    1.4289   -4.9500    0.0000 C   0  0  0  0  0  0  0  0  0  0  0  0
    2.0964   -5.4349    0.0000 O   0  0  0  0  0  0  0  0  0  0  0  0
    1.8414   -6.2195    0.0000 N   0  0  0  0  0  0  0  0  0  0  0  0
    1.0164   -6.2195    0.0000 C   0  0  0  0  0  0  0  0  0  0  0  0
    0.7615   -5.4349    0.0000 C   0  0  0  0  0  0  0  0  0  0  0  0
    0.5315   -6.8870    0.0000 C   0  0  0  0  0  0  0  0  0  0  0  0
   -0.2890   -6.8007    0.0000 O   0  0  0  0  0  0  0  0  0  0  0  0
    0.8671   -7.6407    0.0000 N   0  0  0  0  0  0  0  0  0  0  0  0
    0.3822   -8.3081    0.0000 C   0  0  0  0  0  0  0  0  0  0  0  0
    0.7177   -9.0618    0.0000 C   0  0  0  0  0  0  0  0  0  0  0  0
    0.2328   -9.7292    0.0000 C   0  0  0  0  0  0  0  0  0  0  0  0
   -0.5877   -9.6430    0.0000 C   0  0  0  0  0  0  0  0  0  0  0  0
   -0.9232   -8.8893    0.0000 C   0  0  0  0  0  0  0  0  0  0  0  0
   -0.4383   -8.2219    0.0000 C   0  0  0  0  0  0  0  0  0  0  0  0
   -1.0726  -10.3104    0.0000 C   0  0  0  0  0  0  0  0  0  0  0  0
   -0.7371  -11.0641    0.0000 C   0  0  0  0  0  0  0  0  0  0  0  0
   -1.2220  -11.7315    0.0000 C   0  0  0  0  0  0  0  0  0  0  0  0
   -2.0425  -11.6453    0.0000 C   0  0  0  0  0  0  0  0  0  0  0  0
   -2.3780  -10.8916    0.0000 C   0  0  0  0  0  0  0  0  0  0  0  0
   -1.8931  -10.2242    0.0000 C   0  0  0  0  0  0  0  0  0  0  0  0
  1  2  1  0  0  0  0
  2  3  1  0  0  0  0
  3  4  1  0  0  0  0
  4  5  2  0  0  0  0
  5  6  1  0  0  0  0
  2  6  2  0  0  0  0
  5  7  1  0  0  0  0
  7  8  2  0  0  0  0
  7  9  1  0  0  0  0
  9 10  1  0  0  0  0
 10 11  2  0  0  0  0
 11 12  1  0  0  0  0
 12 13  2  0  0  0  0
 13 14  1  0  0  0  0
 14 15  2  0  0  0  0
 10 15  1  0  0  0  0
 13 16  1  0  0  0  0
 16 17  2  0  0  0  0
 17 18  1  0  0  0  0
 18 19  2  0  0  0  0
 19 20  1  0  0  0  0
 20 21  2  0  0  0  0
 16 21  1  0  0  0  0
M  END
> <COMPOUND_ID>
MMV020152

$$$$

  Mrv0541 04191616472D          

 28 30  0  0  0  0            999 V2000
   -0.2328   -7.2542    0.0000 C   0  0  0  0  0  0  0  0  0  0  0  0
    0.4817   -6.8417    0.0000 O   0  0  0  0  0  0  0  0  0  0  0  0
    0.4817   -6.0167    0.0000 C   0  0  0  0  0  0  0  0  0  0  0  0
   -0.2328   -5.6042    0.0000 C   0  0  0  0  0  0  0  0  0  0  0  0
   -0.2328   -4.7792    0.0000 C   0  0  0  0  0  0  0  0  0  0  0  0
    0.4817   -4.3667    0.0000 C   0  0  0  0  0  0  0  0  0  0  0  0
    0.4817   -3.5417    0.0000 Cl  0  0  0  0  0  0  0  0  0  0  0  0
    1.1962   -4.7792    0.0000 C   0  0  0  0  0  0  0  0  0  0  0  0
    1.1962   -5.6042    0.0000 C   0  0  0  0  0  0  0  0  0  0  0  0
    1.9106   -6.0167    0.0000 N   0  0  0  0  0  0  0  0  0  0  0  0
    2.6251   -5.6042    0.0000 C   0  0  0  0  0  0  0  0  0  0  0  0
    2.6251   -4.7792    0.0000 O   0  0  0  0  0  0  0  0  0  0  0  0
    3.3396   -6.0167    0.0000 C   0  0  0  0  0  0  0  0  0  0  0  0
    4.0540   -5.6042    0.0000 N   0  0  0  0  0  0  0  0  0  0  0  0
    4.0540   -4.7792    0.0000 C   0  0  0  0  0  0  0  0  0  0  0  0
    4.7685   -6.0167    0.0000 C   0  0  0  0  0  0  0  0  0  0  0  0
    4.7685   -6.8417    0.0000 O   0  0  0  0  0  0  0  0  0  0  0  0
    5.4830   -5.6042    0.0000 C   0  0  0  0  0  0  0  0  0  0  0  0
    5.5692   -4.7837    0.0000 C   0  0  0  0  0  0  0  0  0  0  0  0
    6.3762   -4.6122    0.0000 N   0  0  0  0  0  0  0  0  0  0  0  0
    6.7887   -5.3267    0.0000 N   0  0  0  0  0  0  0  0  0  0  0  0
    6.2367   -5.9398    0.0000 N   0  0  0  0  0  0  0  0  0  0  0  0
    7.6092   -5.4129    0.0000 C   0  0  0  0  0  0  0  0  0  0  0  0
    8.0941   -4.7455    0.0000 C   0  0  0  0  0  0  0  0  0  0  0  0
    8.9146   -4.8317    0.0000 C   0  0  0  0  0  0  0  0  0  0  0  0
    9.2501   -5.5854    0.0000 C   0  0  0  0  0  0  0  0  0  0  0  0
    8.7652   -6.2528    0.0000 C   0  0  0  0  0  0  0  0  0  0  0  0
    7.9447   -6.1666    0.0000 C   0  0  0  0  0  0  0  0  0  0  0  0
  1  2  1  0  0  0  0
  2  3  1  0  0  0  0
  3  4  2  0  0  0  0
  4  5  1  0  0  0  0
  5  6  2  0  0  0  0
  6  7  1  0  0  0  0
  6  8  1  0  0  0  0
  8  9  2  0  0  0  0
  3  9  1  0  0  0  0
  9 10  1  0  0  0  0
 10 11  1  0  0  0  0
 11 12  2  0  0  0  0
 11 13  1  0  0  0  0
 13 14  1  0  0  0  0
 14 15  1  0  0  0  0
 14 16  1  0  0  0  0
 16 17  2  0  0  0  0
 16 18  1  0  0  0  0
 18 19  1  0  0  0  0
 19 20  2  0  0  0  0
 20 21  1  0  0  0  0
 21 22  1  0  0  0  0
 18 22  2  0  0  0  0
 21 23  1  0  0  0  0
 23 24  2  0  0  0  0
 24 25  1  0  0  0  0
 25 26  2  0  0  0  0
 26 27  1  0  0  0  0
 27 28  2  0  0  0  0
 23 28  1  0  0  0  0
M  END
> <COMPOUND_ID>
MMV020710

$$$$

  Mrv0541 04191616472D          

 31 35  0  0  0  0            999 V2000
    3.5955   -3.9425    0.0000 C   0  0  0  0  0  0  0  0  0  0  0  0
    2.8109   -4.1974    0.0000 C   0  0  0  0  0  0  0  0  0  0  0  0
    2.5559   -4.9820    0.0000 C   0  0  0  0  0  0  0  0  0  0  0  0
    1.7309   -4.9820    0.0000 C   0  0  0  0  0  0  0  0  0  0  0  0
    1.1789   -5.5951    0.0000 C   0  0  0  0  0  0  0  0  0  0  0  0
    0.3719   -5.4236    0.0000 C   0  0  0  0  0  0  0  0  0  0  0  0
    0.1170   -4.6390    0.0000 C   0  0  0  0  0  0  0  0  0  0  0  0
    0.6690   -4.0259    0.0000 C   0  0  0  0  0  0  0  0  0  0  0  0
    1.4760   -4.1974    0.0000 C   0  0  0  0  0  0  0  0  0  0  0  0
    2.1434   -3.7125    0.0000 N   0  0  0  0  0  0  0  0  0  0  0  0
    2.1434   -2.8875    0.0000 C   0  0  0  0  0  0  0  0  0  0  0  0
    1.4289   -2.4750    0.0000 C   0  0  0  0  0  0  0  0  0  0  0  0
    0.7145   -2.8875    0.0000 O   0  0  0  0  0  0  0  0  0  0  0  0
    1.4289   -1.6500    0.0000 N   0  0  0  0  0  0  0  0  0  0  0  0
    0.7145   -1.2375    0.0000 C   0  0  0  0  0  0  0  0  0  0  0  0
    0.7145   -0.4125    0.0000 C   0  0  0  0  0  0  0  0  0  0  0  0
    1.4289    0.0000    0.0000 O   0  0  0  0  0  0  0  0  0  0  0  0
    2.1434   -0.4125    0.0000 C   0  0  0  0  0  0  0  0  0  0  0  0
    2.8579    0.0000    0.0000 C   0  0  0  0  0  0  0  0  0  0  0  0
    3.5724   -0.4125    0.0000 C   0  0  0  0  0  0  0  0  0  0  0  0
    3.5724   -1.2375    0.0000 C   0  0  0  0  0  0  0  0  0  0  0  0
    2.8579   -1.6500    0.0000 C   0  0  0  0  0  0  0  0  0  0  0  0
    2.1434   -1.2375    0.0000 C   0  0  0  0  0  0  0  0  0  0  0  0
    0.0000    0.0000    0.0000 C   0  0  0  0  0  0  0  0  0  0  0  0
   -0.7145   -0.4125    0.0000 O   0  0  0  0  0  0  0  0  0  0  0  0
    0.0000    0.8250    0.0000 N   0  0  0  0  0  0  0  0  0  0  0  0
   -0.7145    1.2375    0.0000 C   0  0  0  0  0  0  0  0  0  0  0  0
   -0.7145    2.0625    0.0000 C   0  0  0  0  0  0  0  0  0  0  0  0
    0.0000    2.4750    0.0000 C   0  0  0  0  0  0  0  0  0  0  0  0
    0.7145    2.0625    0.0000 C   0  0  0  0  0  0  0  0  0  0  0  0
    0.7145    1.2375    0.0000 C   0  0  0  0  0  0  0  0  0  0  0  0
  1  2  1  0  0  0  0
  2  3  2  0  0  0  0
  3  4  1  0  0  0  0
  4  5  2  0  0  0  0
  5  6  1  0  0  0  0
  6  7  2  0  0  0  0
  7  8  1  0  0  0  0
  8  9  2  0  0  0  0
  4  9  1  0  0  0  0
  9 10  1  0  0  0  0
  2 10  1  0  0  0  0
 10 11  1  0  0  0  0
 11 12  1  0  0  0  0
 12 13  2  0  0  0  0
 12 14  1  0  0  0  0
 14 15  1  0  0  0  0
 15 16  1  0  0  0  0
 16 17  1  0  0  0  0
 17 18  1  0  0  0  0
 18 19  2  0  0  0  0
 19 20  1  0  0  0  0
 20 21  2  0  0  0  0
 21 22  1  0  0  0  0
 22 23  2  0  0  0  0
 14 23  1  0  0  0  0
 18 23  1  0  0  0  0
 16 24  1  0  0  0  0
 24 25  2  0  0  0  0
 24 26  1  0  0  0  0
 26 27  1  0  0  0  0
 27 28  1  0  0  0  0
 28 29  1  0  0  0  0
 29 30  1  0  0  0  0
 30 31  1  0  0  0  0
 26 31  1  0  0  0  0
M  END
> <COMPOUND_ID>
MMV020520

$$$$

  Mrv0541 04191616472D          

 26 27  0  0  0  0            999 V2000
    2.1434   -6.1875    0.0000 C   0  0  0  0  0  0  0  0  0  0  0  0
    2.1434   -5.3625    0.0000 O   0  0  0  0  0  0  0  0  0  0  0  0
    1.4289   -4.9500    0.0000 C   0  0  0  0  0  0  0  0  0  0  0  0
    0.7145   -5.3625    0.0000 C   0  0  0  0  0  0  0  0  0  0  0  0
    0.0000   -4.9500    0.0000 C   0  0  0  0  0  0  0  0  0  0  0  0
    0.0000   -4.1250    0.0000 C   0  0  0  0  0  0  0  0  0  0  0  0
    0.7145   -3.7125    0.0000 C   0  0  0  0  0  0  0  0  0  0  0  0
    1.4289   -4.1250    0.0000 C   0  0  0  0  0  0  0  0  0  0  0  0
    2.1434   -3.7125    0.0000 C   0  0  0  0  0  0  0  0  0  0  0  0
    2.1434   -2.8875    0.0000 C   0  0  0  0  0  0  0  0  0  0  0  0
    2.8579   -4.1250    0.0000 N   0  0  0  0  0  0  0  0  0  0  0  0
    3.5724   -3.7125    0.0000 C   0  0  0  0  0  0  0  0  0  0  0  0
    4.2868   -4.1250    0.0000 C   0  0  0  0  0  0  0  0  0  0  0  0
    4.2868   -4.9500    0.0000 O   0  0  0  0  0  0  0  0  0  0  0  0
    5.0013   -3.7125    0.0000 N   0  0  0  0  0  0  0  0  0  0  0  0
    5.7158   -4.1250    0.0000 C   0  0  0  0  0  0  0  0  0  0  0  0
    6.4302   -3.7125    0.0000 C   0  0  0  0  0  0  0  0  0  0  0  0
    7.1447   -4.1250    0.0000 C   0  0  0  0  0  0  0  0  0  0  0  0
    7.1447   -4.9500    0.0000 C   0  0  0  0  0  0  0  0  0  0  0  0
    6.4302   -5.3625    0.0000 C   0  0  0  0  0  0  0  0  0  0  0  0
    5.7158   -4.9500    0.0000 C   0  0  0  0  0  0  0  0  0  0  0  0
    5.0013   -5.3625    0.0000 Cl  0  0  0  0  0  0  0  0  0  0  0  0
    7.8592   -3.7125    0.0000 C   0  0  0  0  0  0  0  0  0  0  0  0
    8.5737   -3.3000    0.0000 F   0  0  0  0  0  0  0  0  0  0  0  0
    8.2717   -4.4270    0.0000 F   0  0  0  0  0  0  0  0  0  0  0  0
    7.4467   -2.9980    0.0000 F   0  0  0  0  0  0  0  0  0  0  0  0
  1  2  1  0  0  0  0
  2  3  1  0  0  0  0
  3  4  2  0  0  0  0
  4  5  1  0  0  0  0
  5  6  2  0  0  0  0
  6  7  1  0  0  0  0
  7  8  2  0  0  0  0
  3  8  1  0  0  0  0
  8  9  1  0  0  0  0
  9 10  1  0  0  0  0
  9 11  1  0  0  0  0
 11 12  1  0  0  0  0
 12 13  1  0  0  0  0
 13 14  2  0  0  0  0
 13 15  1  0  0  0  0
 15 16  1  0  0  0  0
 16 17  2  0  0  0  0
 17 18  1  0  0  0  0
 18 19  2  0  0  0  0
 19 20  1  0  0  0  0
 20 21  2  0  0  0  0
 16 21  1  0  0  0  0
 21 22  1  0  0  0  0
 18 23  1  0  0  0  0
 23 24  1  0  0  0  0
 23 25  1  0  0  0  0
 23 26  1  0  0  0  0
M  END
> <COMPOUND_ID>
MMV020321

$$$$

  Mrv0541 04191616472D          

 31 33  0  0  0  0            999 V2000
    0.7145   -1.2375    0.0000 C   0  0  0  0  0  0  0  0  0  0  0  0
    0.7145   -0.4125    0.0000 C   0  0  0  0  0  0  0  0  0  0  0  0
    1.4289   -0.0000    0.0000 O   0  0  0  0  0  0  0  0  0  0  0  0
    1.4289    0.8250    0.0000 C   0  0  0  0  0  0  0  0  0  0  0  0
    0.7145    1.2375    0.0000 C   0  0  0  0  0  0  0  0  0  0  0  0
    0.7145    2.0625    0.0000 C   0  0  0  0  0  0  0  0  0  0  0  0
    1.4289    2.4750    0.0000 C   0  0  0  0  0  0  0  0  0  0  0  0
    2.1434    2.0625    0.0000 C   0  0  0  0  0  0  0  0  0  0  0  0
    2.1434    1.2375    0.0000 C   0  0  0  0  0  0  0  0  0  0  0  0
    2.8579    0.8250    0.0000 N   0  0  0  0  0  0  0  0  0  0  0  0
    2.8579   -0.0000    0.0000 C   0  0  0  0  0  0  0  0  0  0  0  0
    2.1434   -0.4125    0.0000 C   0  0  0  0  0  0  0  0  0  0  0  0
    3.5724   -0.4125    0.0000 C   0  0  0  0  0  0  0  0  0  0  0  0
    3.0874   -1.0799    0.0000 O   0  0  0  0  0  0  0  0  0  0  0  0
    4.2868   -0.0000    0.0000 N   0  0  0  0  0  0  0  0  0  0  0  0
    5.0013   -0.4125    0.0000 C   0  0  0  0  0  0  0  0  0  0  0  0
    5.7158    0.0000    0.0000 C   0  0  0  0  0  0  0  0  0  0  0  0
    6.4302   -0.4125    0.0000 C   0  0  0  0  0  0  0  0  0  0  0  0
    6.4302   -1.2375    0.0000 C   0  0  0  0  0  0  0  0  0  0  0  0
    5.7158   -1.6500    0.0000 C   0  0  0  0  0  0  0  0  0  0  0  0
    5.0013   -1.2375    0.0000 C   0  0  0  0  0  0  0  0  0  0  0  0
    4.2868   -1.6500    0.0000 N   0  0  0  0  0  0  0  0  0  0  0  0
    4.2868   -2.4750    0.0000 C   0  0  0  0  0  0  0  0  0  0  0  0
    3.5724   -2.8875    0.0000 C   0  0  0  0  0  0  0  0  0  0  0  0
    2.8579   -2.4750    0.0000 O   0  0  0  0  0  0  0  0  0  0  0  0
    2.8579   -1.6500    0.0000 C   0  0  0  0  0  0  0  0  0  0  0  0
    3.5724   -1.2375    0.0000 C   0  0  0  0  0  0  0  0  0  0  0  0
    7.1447   -0.0000    0.0000 C   0  0  0  0  0  0  0  0  0  0  0  0
    7.8592    0.4125    0.0000 F   0  0  0  0  0  0  0  0  0  0  0  0
    7.5572   -0.7145    0.0000 F   0  0  0  0  0  0  0  0  0  0  0  0
    6.7322    0.7145    0.0000 F   0  0  0  0  0  0  0  0  0  0  0  0
  1  2  1  0  0  0  0
  2  3  1  0  0  0  0
  3  4  1  0  0  0  0
  4  5  2  0  0  0  0
  5  6  1  0  0  0  0
  6  7  2  0  0  0  0
  7  8  1  0  0  0  0
  8  9  2  0  0  0  0
  4  9  1  0  0  0  0
  9 10  1  0  0  0  0
 10 11  1  0  0  0  0
 11 12  1  0  0  0  0
 11 13  1  0  0  0  0
 13 14  2  0  0  0  0
 13 15  1  0  0  0  0
 15 16  1  0  0  0  0
 16 17  2  0  0  0  0
 17 18  1  0  0  0  0
 18 19  2  0  0  0  0
 19 20  1  0  0  0  0
 20 21  2  0  0  0  0
 16 21  1  0  0  0  0
 21 22  1  0  0  0  0
 22 23  1  0  0  0  0
 23 24  1  0  0  0  0
 24 25  1  0  0  0  0
 25 26  1  0  0  0  0
 26 27  1  0  0  0  0
 22 27  1  0  0  0  0
 18 28  1  0  0  0  0
 28 29  1  0  0  0  0
 28 30  1  0  0  0  0
 28 31  1  0  0  0  0
M  END
> <COMPOUND_ID>
MMV407834

$$$$

  Mrv0541 04191616472D          

 27 28  0  0  0  0            999 V2000
    2.1434   -6.1875    0.0000 C   0  0  0  0  0  0  0  0  0  0  0  0
    2.8579   -6.6000    0.0000 C   0  0  0  0  0  0  0  0  0  0  0  0
    2.8579   -7.4250    0.0000 C   0  0  0  0  0  0  0  0  0  0  0  0
    3.5724   -6.1875    0.0000 N   0  0  0  0  0  0  0  0  0  0  0  0
    4.2868   -6.6000    0.0000 C   0  0  0  0  0  0  0  0  0  0  0  0
    5.0013   -6.1875    0.0000 C   0  0  0  0  0  0  0  0  0  0  0  0
    5.0013   -5.3625    0.0000 O   0  0  0  0  0  0  0  0  0  0  0  0
    5.7158   -6.6000    0.0000 N   0  0  0  0  0  0  0  0  0  0  0  0
    6.4302   -6.1875    0.0000 C   0  0  0  0  0  0  0  0  0  0  0  0
    6.4302   -5.3625    0.0000 C   0  0  0  0  0  0  0  0  0  0  0  0
    7.1447   -4.9500    0.0000 C   0  0  0  0  0  0  0  0  0  0  0  0
    7.8592   -5.3625    0.0000 C   0  0  0  0  0  0  0  0  0  0  0  0
    7.8592   -6.1875    0.0000 C   0  0  0  0  0  0  0  0  0  0  0  0
    7.1447   -6.6000    0.0000 C   0  0  0  0  0  0  0  0  0  0  0  0
    8.5737   -6.6000    0.0000 C   0  0  0  0  0  0  0  0  0  0  0  0
    9.2881   -6.1875    0.0000 O   0  0  0  0  0  0  0  0  0  0  0  0
    8.5737   -7.4250    0.0000 N   0  0  0  0  0  0  0  0  0  0  0  0
    9.2881   -7.8375    0.0000 C   0  0  0  0  0  0  0  0  0  0  0  0
   10.0026   -7.4250    0.0000 C   0  0  0  0  0  0  0  0  0  0  0  0
   10.7171   -7.8375    0.0000 C   0  0  0  0  0  0  0  0  0  0  0  0
   10.7171   -8.6625    0.0000 C   0  0  0  0  0  0  0  0  0  0  0  0
   10.0026   -9.0750    0.0000 C   0  0  0  0  0  0  0  0  0  0  0  0
    9.2881   -8.6625    0.0000 C   0  0  0  0  0  0  0  0  0  0  0  0
   10.0026   -9.9000    0.0000 C   0  0  0  0  0  0  0  0  0  0  0  0
   10.0026  -10.7250    0.0000 F   0  0  0  0  0  0  0  0  0  0  0  0
    9.1776   -9.9000    0.0000 F   0  0  0  0  0  0  0  0  0  0  0  0
   10.8276   -9.9000    0.0000 F   0  0  0  0  0  0  0  0  0  0  0  0
  1  2  1  0  0  0  0
  2  3  1  0  0  0  0
  2  4  1  0  0  0  0
  4  5  1  0  0  0  0
  5  6  1  0  0  0  0
  6  7  2  0  0  0  0
  6  8  1  0  0  0  0
  8  9  1  0  0  0  0
  9 10  2  0  0  0  0
 10 11  1  0  0  0  0
 11 12  2  0  0  0  0
 12 13  1  0  0  0  0
 13 14  2  0  0  0  0
  9 14  1  0  0  0  0
 13 15  1  0  0  0  0
 15 16  2  0  0  0  0
 15 17  1  0  0  0  0
 17 18  1  0  0  0  0
 18 19  2  0  0  0  0
 19 20  1  0  0  0  0
 20 21  2  0  0  0  0
 21 22  1  0  0  0  0
 22 23  2  0  0  0  0
 18 23  1  0  0  0  0
 22 24  1  0  0  0  0
 24 25  1  0  0  0  0
 24 26  1  0  0  0  0
 24 27  1  0  0  0  0
M  END
> <COMPOUND_ID>
MMV020165

$$$$

  Mrv0541 04191616472D          

 28 31  0  0  0  0            999 V2000
   -1.1710   -6.6161    0.0000 C   0  0  0  0  0  0  0  0  0  0  0  0
   -1.4259   -5.8314    0.0000 C   0  0  0  0  0  0  0  0  0  0  0  0
   -2.2329   -5.6599    0.0000 C   0  0  0  0  0  0  0  0  0  0  0  0
   -2.4878   -4.8753    0.0000 C   0  0  0  0  0  0  0  0  0  0  0  0
   -1.9358   -4.2622    0.0000 C   0  0  0  0  0  0  0  0  0  0  0  0
   -2.1907   -3.4776    0.0000 N   0  0  0  0  0  0  0  0  0  0  0  0
   -1.6387   -2.8645    0.0000 C   0  0  0  0  0  0  0  0  0  0  0  0
   -0.8317   -3.0360    0.0000 O   0  0  0  0  0  0  0  0  0  0  0  0
   -1.8936   -2.0799    0.0000 C   0  0  0  0  0  0  0  0  0  0  0  0
   -2.6782   -1.8249    0.0000 N   0  0  0  0  0  0  0  0  0  0  0  0
   -2.6782   -0.9999    0.0000 C   0  0  0  0  0  0  0  0  0  0  0  0
   -1.8936   -0.7450    0.0000 N   0  0  0  0  0  0  0  0  0  0  0  0
   -1.4087   -1.4124    0.0000 C   0  0  0  0  0  0  0  0  0  0  0  0
   -0.5837   -1.4124    0.0000 C   0  0  0  0  0  0  0  0  0  0  0  0
   -0.1712   -2.1269    0.0000 O   0  0  0  0  0  0  0  0  0  0  0  0
   -0.1712   -0.6979    0.0000 N   0  0  0  0  0  0  0  0  0  0  0  0
    0.6538   -0.6979    0.0000 C   0  0  0  0  0  0  0  0  0  0  0  0
    1.1387   -0.0305    0.0000 N   0  0  0  0  0  0  0  0  0  0  0  0
    1.9233   -0.2854    0.0000 C   0  0  0  0  0  0  0  0  0  0  0  0
    2.6378    0.1271    0.0000 C   0  0  0  0  0  0  0  0  0  0  0  0
    3.3523   -0.2854    0.0000 C   0  0  0  0  0  0  0  0  0  0  0  0
    3.3523   -1.1104    0.0000 C   0  0  0  0  0  0  0  0  0  0  0  0
    2.6378   -1.5229    0.0000 C   0  0  0  0  0  0  0  0  0  0  0  0
    1.9233   -1.1104    0.0000 C   0  0  0  0  0  0  0  0  0  0  0  0
    1.1387   -1.3654    0.0000 N   0  0  0  0  0  0  0  0  0  0  0  0
   -1.1288   -4.4337    0.0000 C   0  0  0  0  0  0  0  0  0  0  0  0
   -0.5768   -3.8206    0.0000 C   0  0  0  0  0  0  0  0  0  0  0  0
   -0.8739   -5.2183    0.0000 C   0  0  0  0  0  0  0  0  0  0  0  0
  1  2  1  0  0  0  0
  2  3  2  0  0  0  0
  3  4  1  0  0  0  0
  4  5  2  0  0  0  0
  5  6  1  0  0  0  0
  6  7  1  0  0  0  0
  7  8  2  0  0  0  0
  7  9  1  0  0  0  0
  9 10  1  0  0  0  0
 10 11  2  0  0  0  0
 11 12  1  0  0  0  0
 12 13  1  0  0  0  0
  9 13  2  0  0  0  0
 13 14  1  0  0  0  0
 14 15  2  0  0  0  0
 14 16  1  0  0  0  0
 16 17  1  0  0  0  0
 17 18  2  0  0  0  0
 18 19  1  0  0  0  0
 19 20  2  0  0  0  0
 20 21  1  0  0  0  0
 21 22  2  0  0  0  0
 22 23  1  0  0  0  0
 23 24  2  0  0  0  0
 19 24  1  0  0  0  0
 24 25  1  0  0  0  0
 17 25  1  0  0  0  0
  5 26  1  0  0  0  0
 26 27  1  0  0  0  0
 26 28  2  0  0  0  0
  2 28  1  0  0  0  0
M  END
> <COMPOUND_ID>
MMV011903

$$$$

  Mrv0541 04191616472D          

 29 31  0  0  0  0            999 V2000
    4.2868   -4.1250    0.0000 C   0  0  0  0  0  0  0  0  0  0  0  0
    3.5724   -4.5375    0.0000 N   0  0  0  0  0  0  0  0  0  0  0  0
    3.5724   -5.3625    0.0000 C   0  0  0  0  0  0  0  0  0  0  0  0
    4.2868   -5.7750    0.0000 C   0  0  0  0  0  0  0  0  0  0  0  0
    4.2868   -6.6000    0.0000 C   0  0  0  0  0  0  0  0  0  0  0  0
    3.5724   -7.0125    0.0000 C   0  0  0  0  0  0  0  0  0  0  0  0
    3.5724   -7.8375    0.0000 F   0  0  0  0  0  0  0  0  0  0  0  0
    2.8579   -6.6000    0.0000 C   0  0  0  0  0  0  0  0  0  0  0  0
    2.8579   -5.7750    0.0000 C   0  0  0  0  0  0  0  0  0  0  0  0
    2.8579   -4.1250    0.0000 S   0  0  0  0  0  0  0  0  0  0  0  0
    3.2704   -3.4105    0.0000 O   0  0  0  0  0  0  0  0  0  0  0  0
    2.4454   -4.8395    0.0000 O   0  0  0  0  0  0  0  0  0  0  0  0
    2.1434   -3.7125    0.0000 C   0  0  0  0  0  0  0  0  0  0  0  0
    1.4289   -4.1250    0.0000 C   0  0  0  0  0  0  0  0  0  0  0  0
    0.7145   -3.7125    0.0000 C   0  0  0  0  0  0  0  0  0  0  0  0
    0.7145   -2.8875    0.0000 C   0  0  0  0  0  0  0  0  0  0  0  0
    0.0000   -2.4750    0.0000 Cl  0  0  0  0  0  0  0  0  0  0  0  0
    1.4289   -2.4750    0.0000 C   0  0  0  0  0  0  0  0  0  0  0  0
    2.1434   -2.8875    0.0000 C   0  0  0  0  0  0  0  0  0  0  0  0
    1.4289   -1.6500    0.0000 C   0  0  0  0  0  0  0  0  0  0  0  0
    2.1434   -1.2375    0.0000 O   0  0  0  0  0  0  0  0  0  0  0  0
    0.7145   -1.2375    0.0000 N   0  0  0  0  0  0  0  0  0  0  0  0
    0.7145   -0.4125    0.0000 C   0  0  0  0  0  0  0  0  0  0  0  0
    0.0000    0.0000    0.0000 C   0  0  0  0  0  0  0  0  0  0  0  0
    0.0000    0.8250    0.0000 C   0  0  0  0  0  0  0  0  0  0  0  0
    0.7145    1.2375    0.0000 C   0  0  0  0  0  0  0  0  0  0  0  0
    1.4289    0.8250    0.0000 C   0  0  0  0  0  0  0  0  0  0  0  0
    2.1434    1.2375    0.0000 C   0  0  0  0  0  0  0  0  0  0  0  0
    1.4289    0.0000    0.0000 N   0  0  0  0  0  0  0  0  0  0  0  0
  1  2  1  0  0  0  0
  2  3  1  0  0  0  0
  3  4  2  0  0  0  0
  4  5  1  0  0  0  0
  5  6  2  0  0  0  0
  6  7  1  0  0  0  0
  6  8  1  0  0  0  0
  8  9  2  0  0  0  0
  3  9  1  0  0  0  0
  2 10  1  0  0  0  0
 10 11  2  0  0  0  0
 10 12  2  0  0  0  0
 10 13  1  0  0  0  0
 13 14  2  0  0  0  0
 14 15  1  0  0  0  0
 15 16  2  0  0  0  0
 16 17  1  0  0  0  0
 16 18  1  0  0  0  0
 18 19  2  0  0  0  0
 13 19  1  0  0  0  0
 18 20  1  0  0  0  0
 20 21  2  0  0  0  0
 20 22  1  0  0  0  0
 22 23  1  0  0  0  0
 23 24  2  0  0  0  0
 24 25  1  0  0  0  0
 25 26  2  0  0  0  0
 26 27  1  0  0  0  0
 27 28  1  0  0  0  0
 27 29  2  0  0  0  0
 23 29  1  0  0  0  0
M  END
> <COMPOUND_ID>
MMV676528

$$$$

  Mrv0541 04191616472D          

 25 28  0  0  0  0            999 V2000
    6.1283   -3.0618    0.0000 O   0  0  0  0  0  0  0  0  0  0  0  0
    6.8427   -2.6493    0.0000 C   0  0  0  0  0  0  0  0  0  0  0  0
    7.5572   -3.0618    0.0000 N   0  0  0  0  0  0  0  0  0  0  0  0
    7.5572   -3.8868    0.0000 C   0  0  0  0  0  0  0  0  0  0  0  0
    7.9697   -4.6013    0.0000 C   0  0  0  0  0  0  0  0  0  0  0  0
    7.1447   -4.6013    0.0000 C   0  0  0  0  0  0  0  0  0  0  0  0
    6.8427   -1.8243    0.0000 C   0  0  0  0  0  0  0  0  0  0  0  0
    6.1283   -1.4118    0.0000 C   0  0  0  0  0  0  0  0  0  0  0  0
    6.1283   -0.5868    0.0000 C   0  0  0  0  0  0  0  0  0  0  0  0
    6.8427   -0.1743    0.0000 C   0  0  0  0  0  0  0  0  0  0  0  0
    7.5572   -0.5868    0.0000 N   0  0  0  0  0  0  0  0  0  0  0  0
    7.5572   -1.4118    0.0000 C   0  0  0  0  0  0  0  0  0  0  0  0
    6.8427    0.6507    0.0000 N   0  0  0  0  0  0  0  0  0  0  0  0
    6.1283    1.0632    0.0000 C   0  0  0  0  0  0  0  0  0  0  0  0
    6.1283    1.8882    0.0000 C   0  0  0  0  0  0  0  0  0  0  0  0
    6.8427    2.3007    0.0000 C   0  0  0  0  0  0  0  0  0  0  0  0
    6.8427    3.1257    0.0000 C   0  0  0  0  0  0  0  0  0  0  0  0
    7.5572    3.5382    0.0000 C   0  0  0  0  0  0  0  0  0  0  0  0
    7.5572    4.3632    0.0000 C   0  0  0  0  0  0  0  0  0  0  0  0
    8.2717    4.7757    0.0000 C   0  0  0  0  0  0  0  0  0  0  0  0
    8.9862    4.3632    0.0000 C   0  0  0  0  0  0  0  0  0  0  0  0
    8.9862    3.5382    0.0000 C   0  0  0  0  0  0  0  0  0  0  0  0
    8.2717    3.1257    0.0000 C   0  0  0  0  0  0  0  0  0  0  0  0
    7.5572    1.8882    0.0000 C   0  0  0  0  0  0  0  0  0  0  0  0
    7.5572    1.0632    0.0000 C   0  0  0  0  0  0  0  0  0  0  0  0
  1  2  2  0  0  0  0
  2  3  1  0  0  0  0
  3  4  1  0  0  0  0
  4  5  1  0  0  0  0
  5  6  1  0  0  0  0
  4  6  1  0  0  0  0
  2  7  1  0  0  0  0
  7  8  2  0  0  0  0
  8  9  1  0  0  0  0
  9 10  2  0  0  0  0
 10 11  1  0  0  0  0
 11 12  2  0  0  0  0
  7 12  1  0  0  0  0
 10 13  1  0  0  0  0
 13 14  1  0  0  0  0
 14 15  1  0  0  0  0
 15 16  1  0  0  0  0
 16 17  1  0  0  0  0
 17 18  1  0  0  0  0
 18 19  2  0  0  0  0
 19 20  1  0  0  0  0
 20 21  2  0  0  0  0
 21 22  1  0  0  0  0
 22 23  2  0  0  0  0
 18 23  1  0  0  0  0
 16 24  1  0  0  0  0
 24 25  1  0  0  0  0
 13 25  1  0  0  0  0
M  END
> <COMPOUND_ID>
MMV024397

$$$$

  Mrv0541 04191616472D          

 26 27  0  0  0  0            999 V2000
    1.4289   -2.4750    0.0000 C   0  0  0  0  0  0  0  0  0  0  0  0
    0.7145   -2.0625    0.0000 C   0  0  0  0  0  0  0  0  0  0  0  0
    0.0000   -2.4750    0.0000 C   0  0  0  0  0  0  0  0  0  0  0  0
    0.7145   -1.2375    0.0000 C   0  0  0  0  0  0  0  0  0  0  0  0
    1.4289   -0.8250    0.0000 C   0  0  0  0  0  0  0  0  0  0  0  0
    1.4289   -0.0000    0.0000 O   0  0  0  0  0  0  0  0  0  0  0  0
    2.1434   -1.2375    0.0000 N   0  0  0  0  0  0  0  0  0  0  0  0
    2.8579   -0.8250    0.0000 C   0  0  0  0  0  0  0  0  0  0  0  0
    2.8579    0.0000    0.0000 C   0  0  0  0  0  0  0  0  0  0  0  0
    3.5724    0.4125    0.0000 C   0  0  0  0  0  0  0  0  0  0  0  0
    4.2868    0.0000    0.0000 C   0  0  0  0  0  0  0  0  0  0  0  0
    4.2868   -0.8250    0.0000 C   0  0  0  0  0  0  0  0  0  0  0  0
    3.5724   -1.2375    0.0000 C   0  0  0  0  0  0  0  0  0  0  0  0
    5.0013    0.4125    0.0000 S   0  0  0  0  0  0  0  0  0  0  0  0
    4.5888    1.1270    0.0000 O   0  0  0  0  0  0  0  0  0  0  0  0
    5.4138   -0.3020    0.0000 O   0  0  0  0  0  0  0  0  0  0  0  0
    5.7158    0.8250    0.0000 N   0  0  0  0  0  0  0  0  0  0  0  0
    6.4302    0.4125    0.0000 C   0  0  0  0  0  0  0  0  0  0  0  0
    5.7158    1.6500    0.0000 C   0  0  0  0  0  0  0  0  0  0  0  0
    0.0000   -0.8250    0.0000 C   0  0  0  0  0  0  0  0  0  0  0  0
   -0.7145   -1.2375    0.0000 C   0  0  0  0  0  0  0  0  0  0  0  0
   -1.4289   -0.8250    0.0000 C   0  0  0  0  0  0  0  0  0  0  0  0
   -1.4289   -0.0000    0.0000 C   0  0  0  0  0  0  0  0  0  0  0  0
   -2.1434    0.4125    0.0000 Cl  0  0  0  0  0  0  0  0  0  0  0  0
   -0.7145    0.4125    0.0000 C   0  0  0  0  0  0  0  0  0  0  0  0
    0.0000   -0.0000    0.0000 C   0  0  0  0  0  0  0  0  0  0  0  0
  1  2  1  0  0  0  0
  2  3  1  0  0  0  0
  2  4  1  0  0  0  0
  4  5  1  0  0  0  0
  5  6  2  0  0  0  0
  5  7  1  0  0  0  0
  7  8  1  0  0  0  0
  8  9  2  0  0  0  0
  9 10  1  0  0  0  0
 10 11  2  0  0  0  0
 11 12  1  0  0  0  0
 12 13  2  0  0  0  0
  8 13  1  0  0  0  0
 11 14  1  0  0  0  0
 14 15  2  0  0  0  0
 14 16  2  0  0  0  0
 14 17  1  0  0  0  0
 17 18  1  0  0  0  0
 17 19  1  0  0  0  0
  4 20  1  0  0  0  0
 20 21  2  0  0  0  0
 21 22  1  0  0  0  0
 22 23  2  0  0  0  0
 23 24  1  0  0  0  0
 23 25  1  0  0  0  0
 25 26  2  0  0  0  0
 20 26  1  0  0  0  0
M  END
> <COMPOUND_ID>
MMV020391

$$$$

  Mrv0541 04191616472D          

 28 30  0  0  0  0            999 V2000
    0.0000   -4.9500    0.0000 C   0  0  0  0  0  0  0  0  0  0  0  0
    0.7145   -4.5375    0.0000 C   0  0  0  0  0  0  0  0  0  0  0  0
    0.7145   -3.7125    0.0000 N   0  0  0  0  0  0  0  0  0  0  0  0
    0.0000   -3.3000    0.0000 C   0  0  0  0  0  0  0  0  0  0  0  0
    0.0000   -2.4750    0.0000 C   0  0  0  0  0  0  0  0  0  0  0  0
    0.7145   -2.0625    0.0000 N   0  0  0  0  0  0  0  0  0  0  0  0
    1.4289   -2.4750    0.0000 C   0  0  0  0  0  0  0  0  0  0  0  0
    1.4289   -3.3000    0.0000 C   0  0  0  0  0  0  0  0  0  0  0  0
    0.7145   -1.2375    0.0000 S   0  0  0  0  0  0  0  0  0  0  0  0
   -0.1105   -1.2375    0.0000 O   0  0  0  0  0  0  0  0  0  0  0  0
    1.5395   -1.2375    0.0000 O   0  0  0  0  0  0  0  0  0  0  0  0
    0.7145   -0.4125    0.0000 C   0  0  0  0  0  0  0  0  0  0  0  0
    0.0000    0.0000    0.0000 C   0  0  0  0  0  0  0  0  0  0  0  0
    0.0000    0.8250    0.0000 C   0  0  0  0  0  0  0  0  0  0  0  0
    0.7145    1.2375    0.0000 C   0  0  0  0  0  0  0  0  0  0  0  0
    1.4289    0.8250    0.0000 C   0  0  0  0  0  0  0  0  0  0  0  0
    1.4289    0.0000    0.0000 C   0  0  0  0  0  0  0  0  0  0  0  0
    0.7145    2.0625    0.0000 C   0  0  0  0  0  0  0  0  0  0  0  0
    0.7145    2.8875    0.0000 C   0  0  0  0  0  0  0  0  0  0  0  0
   -0.1105    2.0625    0.0000 C   0  0  0  0  0  0  0  0  0  0  0  0
    1.5395    2.0625    0.0000 C   0  0  0  0  0  0  0  0  0  0  0  0
    1.4289   -4.9500    0.0000 C   0  0  0  0  0  0  0  0  0  0  0  0
    2.1434   -4.5375    0.0000 O   0  0  0  0  0  0  0  0  0  0  0  0
    1.4289   -5.7750    0.0000 N   0  0  0  0  0  0  0  0  0  0  0  0
    2.0964   -6.2599    0.0000 C   0  0  0  0  0  0  0  0  0  0  0  0
    1.8414   -7.0445    0.0000 C   0  0  0  0  0  0  0  0  0  0  0  0
    1.0164   -7.0445    0.0000 C   0  0  0  0  0  0  0  0  0  0  0  0
    0.7615   -6.2599    0.0000 C   0  0  0  0  0  0  0  0  0  0  0  0
  1  2  1  0  0  0  0
  2  3  1  0  0  0  0
  3  4  1  0  0  0  0
  4  5  1  0  0  0  0
  5  6  1  0  0  0  0
  6  7  1  0  0  0  0
  7  8  1  0  0  0  0
  3  8  1  0  0  0  0
  6  9  1  0  0  0  0
  9 10  2  0  0  0  0
  9 11  2  0  0  0  0
  9 12  1  0  0  0  0
 12 13  2  0  0  0  0
 13 14  1  0  0  0  0
 14 15  2  0  0  0  0
 15 16  1  0  0  0  0
 16 17  2  0  0  0  0
 12 17  1  0  0  0  0
 15 18  1  0  0  0  0
 18 19  1  0  0  0  0
 18 20  1  0  0  0  0
 18 21  1  0  0  0  0
  2 22  1  0  0  0  0
 22 23  2  0  0  0  0
 22 24  1  0  0  0  0
 24 25  1  0  0  0  0
 25 26  1  0  0  0  0
 26 27  1  0  0  0  0
 27 28  1  0  0  0  0
 24 28  1  0  0  0  0
M  END
> <COMPOUND_ID>
MMV020291

$$$$

  Mrv0541 04191616472D          

 30 33  0  0  0  0            999 V2000
    4.0668    2.3479    0.0000 C   0  0  0  0  0  0  0  0  0  0  0  0
    3.3523    1.9354    0.0000 C   0  0  0  0  0  0  0  0  0  0  0  0
    3.3523    1.1104    0.0000 C   0  0  0  0  0  0  0  0  0  0  0  0
    2.6378    0.6979    0.0000 C   0  0  0  0  0  0  0  0  0  0  0  0
    2.6378   -0.1271    0.0000 C   0  0  0  0  0  0  0  0  0  0  0  0
    1.9233    1.1104    0.0000 N   0  0  0  0  0  0  0  0  0  0  0  0
    1.1387    0.8555    0.0000 N   0  0  0  0  0  0  0  0  0  0  0  0
    0.6538    1.5229    0.0000 C   0  0  0  0  0  0  0  0  0  0  0  0
    1.1387    2.1904    0.0000 N   0  0  0  0  0  0  0  0  0  0  0  0
    1.9233    1.9354    0.0000 C   0  0  0  0  0  0  0  0  0  0  0  0
    2.6378    2.3479    0.0000 N   0  0  0  0  0  0  0  0  0  0  0  0
   -0.1712    1.5229    0.0000 C   0  0  0  0  0  0  0  0  0  0  0  0
   -0.5837    0.8085    0.0000 O   0  0  0  0  0  0  0  0  0  0  0  0
   -0.5837    2.2374    0.0000 N   0  0  0  0  0  0  0  0  0  0  0  0
   -1.4087    2.2374    0.0000 C   0  0  0  0  0  0  0  0  0  0  0  0
   -1.8212    1.5229    0.0000 C   0  0  0  0  0  0  0  0  0  0  0  0
   -2.6462    1.5229    0.0000 C   0  0  0  0  0  0  0  0  0  0  0  0
   -3.0587    2.2374    0.0000 C   0  0  0  0  0  0  0  0  0  0  0  0
   -2.6462    2.9519    0.0000 C   0  0  0  0  0  0  0  0  0  0  0  0
   -1.8212    2.9519    0.0000 C   0  0  0  0  0  0  0  0  0  0  0  0
   -1.4087    3.6664    0.0000 N   0  0  0  0  0  0  0  0  0  0  0  0
   -1.8212    4.3808    0.0000 C   0  0  0  0  0  0  0  0  0  0  0  0
   -1.4087    5.0953    0.0000 C   0  0  0  0  0  0  0  0  0  0  0  0
   -0.5837    5.0953    0.0000 O   0  0  0  0  0  0  0  0  0  0  0  0
   -0.1712    4.3808    0.0000 C   0  0  0  0  0  0  0  0  0  0  0  0
   -0.5837    3.6664    0.0000 C   0  0  0  0  0  0  0  0  0  0  0  0
   -3.0587    0.8085    0.0000 C   0  0  0  0  0  0  0  0  0  0  0  0
   -3.4712    0.0940    0.0000 F   0  0  0  0  0  0  0  0  0  0  0  0
   -3.7732    1.2210    0.0000 F   0  0  0  0  0  0  0  0  0  0  0  0
   -2.3442    0.3960    0.0000 F   0  0  0  0  0  0  0  0  0  0  0  0
  1  2  1  0  0  0  0
  2  3  1  0  0  0  0
  3  4  2  0  0  0  0
  4  5  1  0  0  0  0
  4  6  1  0  0  0  0
  6  7  1  0  0  0  0
  7  8  2  0  0  0  0
  8  9  1  0  0  0  0
  9 10  2  0  0  0  0
  6 10  1  0  0  0  0
 10 11  1  0  0  0  0
  2 11  2  0  0  0  0
  8 12  1  0  0  0  0
 12 13  2  0  0  0  0
 12 14  1  0  0  0  0
 14 15  1  0  0  0  0
 15 16  2  0  0  0  0
 16 17  1  0  0  0  0
 17 18  2  0  0  0  0
 18 19  1  0  0  0  0
 19 20  2  0  0  0  0
 15 20  1  0  0  0  0
 20 21  1  0  0  0  0
 21 22  1  0  0  0  0
 22 23  1  0  0  0  0
 23 24  1  0  0  0  0
 24 25  1  0  0  0  0
 25 26  1  0  0  0  0
 21 26  1  0  0  0  0
 17 27  1  0  0  0  0
 27 28  1  0  0  0  0
 27 29  1  0  0  0  0
 27 30  1  0  0  0  0
M  END
> <COMPOUND_ID>
MMV019087

$$$$

  Mrv0541 04191616472D          

 24 27  0  0  0  0            999 V2000
   -0.7145   -0.4125    0.0000 O   0  0  0  0  0  0  0  0  0  0  0  0
   -0.7145   -1.2375    0.0000 C   0  0  0  0  0  0  0  0  0  0  0  0
    0.0000   -1.6500    0.0000 N   0  0  0  0  0  0  0  0  0  0  0  0
    0.7145   -1.2375    0.0000 C   0  0  0  0  0  0  0  0  0  0  0  0
    0.7145   -0.4125    0.0000 C   0  0  0  0  0  0  0  0  0  0  0  0
    1.4289    0.0000    0.0000 N   0  0  0  0  0  0  0  0  0  0  0  0
    2.1434   -0.4125    0.0000 C   0  0  0  0  0  0  0  0  0  0  0  0
    2.8579    0.0000    0.0000 C   0  0  0  0  0  0  0  0  0  0  0  0
    3.5724   -0.4125    0.0000 C   0  0  0  0  0  0  0  0  0  0  0  0
    3.5724   -1.2375    0.0000 C   0  0  0  0  0  0  0  0  0  0  0  0
    2.8579   -1.6500    0.0000 C   0  0  0  0  0  0  0  0  0  0  0  0
    2.1434   -1.2375    0.0000 C   0  0  0  0  0  0  0  0  0  0  0  0
    1.4289   -1.6500    0.0000 C   0  0  0  0  0  0  0  0  0  0  0  0
   -1.4289   -1.6500    0.0000 C   0  0  0  0  0  0  0  0  0  0  0  0
   -1.4289   -2.4750    0.0000 C   0  0  0  0  0  0  0  0  0  0  0  0
   -2.1434   -2.8875    0.0000 C   0  0  0  0  0  0  0  0  0  0  0  0
   -2.8579   -2.4750    0.0000 C   0  0  0  0  0  0  0  0  0  0  0  0
   -2.8579   -1.6500    0.0000 C   0  0  0  0  0  0  0  0  0  0  0  0
   -2.1434   -1.2375    0.0000 C   0  0  0  0  0  0  0  0  0  0  0  0
   -3.5724   -1.2375    0.0000 N   0  0  0  0  0  0  0  0  0  0  0  0
   -4.3260   -1.5731    0.0000 C   0  0  0  0  0  0  0  0  0  0  0  0
   -4.8781   -0.9600    0.0000 N   0  0  0  0  0  0  0  0  0  0  0  0
   -4.4656   -0.2455    0.0000 N   0  0  0  0  0  0  0  0  0  0  0  0
   -3.6586   -0.4170    0.0000 N   0  0  0  0  0  0  0  0  0  0  0  0
  1  2  2  0  0  0  0
  2  3  1  0  0  0  0
  3  4  1  0  0  0  0
  4  5  2  0  0  0  0
  5  6  1  0  0  0  0
  6  7  2  0  0  0  0
  7  8  1  0  0  0  0
  8  9  2  0  0  0  0
  9 10  1  0  0  0  0
 10 11  2  0  0  0  0
 11 12  1  0  0  0  0
  7 12  1  0  0  0  0
 12 13  2  0  0  0  0
  4 13  1  0  0  0  0
  2 14  1  0  0  0  0
 14 15  2  0  0  0  0
 15 16  1  0  0  0  0
 16 17  2  0  0  0  0
 17 18  1  0  0  0  0
 18 19  2  0  0  0  0
 14 19  1  0  0  0  0
 18 20  1  0  0  0  0
 20 21  1  0  0  0  0
 21 22  2  0  0  0  0
 22 23  1  0  0  0  0
 23 24  2  0  0  0  0
 20 24  1  0  0  0  0
M  END
> <COMPOUND_ID>
MMV084864

$$$$

  Mrv0541 04191616472D          

 25 27  0  0  0  0            999 V2000
   -3.6791   10.1277    0.0000 Cl  0  0  0  0  0  0  0  0  0  0  0  0
   -2.9646    9.7152    0.0000 C   0  0  0  0  0  0  0  0  0  0  0  0
   -2.2501   10.1277    0.0000 C   0  0  0  0  0  0  0  0  0  0  0  0
   -1.5356    9.7152    0.0000 C   0  0  0  0  0  0  0  0  0  0  0  0
   -1.5356    8.8902    0.0000 C   0  0  0  0  0  0  0  0  0  0  0  0
   -2.2501    8.4777    0.0000 C   0  0  0  0  0  0  0  0  0  0  0  0
   -2.9646    8.8902    0.0000 C   0  0  0  0  0  0  0  0  0  0  0  0
   -0.8212    8.4777    0.0000 S   0  0  0  0  0  0  0  0  0  0  0  0
   -1.2337    7.7632    0.0000 O   0  0  0  0  0  0  0  0  0  0  0  0
   -0.4087    9.1922    0.0000 O   0  0  0  0  0  0  0  0  0  0  0  0
   -0.1067    8.0652    0.0000 N   0  0  0  0  0  0  0  0  0  0  0  0
    0.6078    8.4777    0.0000 C   0  0  0  0  0  0  0  0  0  0  0  0
    1.3222    8.0652    0.0000 C   0  0  0  0  0  0  0  0  0  0  0  0
    1.3222    7.2402    0.0000 N   0  0  0  0  0  0  0  0  0  0  0  0
    0.6078    6.8277    0.0000 C   0  0  0  0  0  0  0  0  0  0  0  0
   -0.1067    7.2402    0.0000 C   0  0  0  0  0  0  0  0  0  0  0  0
    2.0367    6.8277    0.0000 C   0  0  0  0  0  0  0  0  0  0  0  0
    2.7512    7.2402    0.0000 S   0  0  0  0  0  0  0  0  0  0  0  0
    2.0367    6.0027    0.0000 N   0  0  0  0  0  0  0  0  0  0  0  0
    2.7512    5.5902    0.0000 C   0  0  0  0  0  0  0  0  0  0  0  0
    2.7512    4.7652    0.0000 C   0  0  0  0  0  0  0  0  0  0  0  0
    3.4186    4.2803    0.0000 O   0  0  0  0  0  0  0  0  0  0  0  0
    3.1637    3.4956    0.0000 C   0  0  0  0  0  0  0  0  0  0  0  0
    2.3387    3.4956    0.0000 C   0  0  0  0  0  0  0  0  0  0  0  0
    2.0837    4.2803    0.0000 C   0  0  0  0  0  0  0  0  0  0  0  0
  1  2  1  0  0  0  0
  2  3  2  0  0  0  0
  3  4  1  0  0  0  0
  4  5  2  0  0  0  0
  5  6  1  0  0  0  0
  6  7  2  0  0  0  0
  2  7  1  0  0  0  0
  5  8  1  0  0  0  0
  8  9  2  0  0  0  0
  8 10  2  0  0  0  0
  8 11  1  0  0  0  0
 11 12  1  0  0  0  0
 12 13  1  0  0  0  0
 13 14  1  0  0  0  0
 14 15  1  0  0  0  0
 15 16  1  0  0  0  0
 11 16  1  0  0  0  0
 14 17  1  0  0  0  0
 17 18  2  0  0  0  0
 17 19  1  0  0  0  0
 19 20  1  0  0  0  0
 20 21  1  0  0  0  0
 21 22  1  0  0  0  0
 22 23  1  0  0  0  0
 23 24  2  0  0  0  0
 24 25  1  0  0  0  0
 21 25  2  0  0  0  0
M  END
> <COMPOUND_ID>
MMV000858

$$$$

  Mrv0541 04191616472D          

 27 30  0  0  0  0            999 V2000
    3.9934    5.7750    0.0000 C   0  0  0  0  0  0  0  0  0  0  0  0
    3.9934    4.9500    0.0000 O   0  0  0  0  0  0  0  0  0  0  0  0
    4.7079    4.5375    0.0000 C   0  0  0  0  0  0  0  0  0  0  0  0
    5.4223    4.9500    0.0000 C   0  0  0  0  0  0  0  0  0  0  0  0
    6.1368    4.5375    0.0000 C   0  0  0  0  0  0  0  0  0  0  0  0
    6.1368    3.7125    0.0000 C   0  0  0  0  0  0  0  0  0  0  0  0
    5.4223    3.3000    0.0000 C   0  0  0  0  0  0  0  0  0  0  0  0
    4.7079    3.7125    0.0000 C   0  0  0  0  0  0  0  0  0  0  0  0
    3.9934    3.3000    0.0000 C   0  0  0  0  0  0  0  0  0  0  0  0
    3.9934    2.4750    0.0000 N   0  0  0  0  0  0  0  0  0  0  0  0
    3.2789    2.0625    0.0000 C   0  0  0  0  0  0  0  0  0  0  0  0
    2.5645    2.4750    0.0000 O   0  0  0  0  0  0  0  0  0  0  0  0
    3.2789    1.2375    0.0000 C   0  0  0  0  0  0  0  0  0  0  0  0
    3.9934    0.8250    0.0000 C   0  0  0  0  0  0  0  0  0  0  0  0
    3.9934    0.0000    0.0000 C   0  0  0  0  0  0  0  0  0  0  0  0
    3.2789   -0.4125    0.0000 N   0  0  0  0  0  0  0  0  0  0  0  0
    2.5645    0.0000    0.0000 C   0  0  0  0  0  0  0  0  0  0  0  0
    2.5645    0.8250    0.0000 C   0  0  0  0  0  0  0  0  0  0  0  0
    1.7798    1.0799    0.0000 C   0  0  0  0  0  0  0  0  0  0  0  0
    1.2949    0.4125    0.0000 N   0  0  0  0  0  0  0  0  0  0  0  0
    1.7798   -0.2549    0.0000 N   0  0  0  0  0  0  0  0  0  0  0  0
    1.5249   -1.0396    0.0000 C   0  0  0  0  0  0  0  0  0  0  0  0
    2.0769   -1.6527    0.0000 C   0  0  0  0  0  0  0  0  0  0  0  0
    0.7179   -1.2111    0.0000 C   0  0  0  0  0  0  0  0  0  0  0  0
    4.7079   -0.4125    0.0000 C   0  0  0  0  0  0  0  0  0  0  0  0
    5.5329   -0.4125    0.0000 C   0  0  0  0  0  0  0  0  0  0  0  0
    5.1204   -1.1270    0.0000 C   0  0  0  0  0  0  0  0  0  0  0  0
  1  2  1  0  0  0  0
  2  3  1  0  0  0  0
  3  4  2  0  0  0  0
  4  5  1  0  0  0  0
  5  6  2  0  0  0  0
  6  7  1  0  0  0  0
  7  8  2  0  0  0  0
  3  8  1  0  0  0  0
  8  9  1  0  0  0  0
  9 10  1  0  0  0  0
 10 11  1  0  0  0  0
 11 12  2  0  0  0  0
 11 13  1  0  0  0  0
 13 14  1  0  0  0  0
 14 15  2  0  0  0  0
 15 16  1  0  0  0  0
 16 17  2  0  0  0  0
 17 18  1  0  0  0  0
 13 18  2  0  0  0  0
 18 19  1  0  0  0  0
 19 20  2  0  0  0  0
 20 21  1  0  0  0  0
 17 21  1  0  0  0  0
 21 22  1  0  0  0  0
 22 23  1  0  0  0  0
 22 24  1  0  0  0  0
 15 25  1  0  0  0  0
 25 26  1  0  0  0  0
 26 27  1  0  0  0  0
 25 27  1  0  0  0  0
M  END
> <COMPOUND_ID>
MMV020517

$$$$

  Mrv0541 04191616472D          

 25 26  0  0  0  0            999 V2000
    1.4289   -1.6500    0.0000 C   0  0  0  0  0  0  0  0  0  0  0  0
    1.4289   -2.4750    0.0000 C   0  0  0  0  0  0  0  0  0  0  0  0
    2.1434   -2.8875    0.0000 C   0  0  0  0  0  0  0  0  0  0  0  0
    2.1434   -3.7125    0.0000 C   0  0  0  0  0  0  0  0  0  0  0  0
    1.4289   -4.1250    0.0000 C   0  0  0  0  0  0  0  0  0  0  0  0
    1.4289   -4.9500    0.0000 N   0  0  0  0  0  0  0  0  0  0  0  0
    2.1434   -5.3625    0.0000 C   0  0  0  0  0  0  0  0  0  0  0  0
    2.8579   -4.9500    0.0000 O   0  0  0  0  0  0  0  0  0  0  0  0
    2.1434   -6.1875    0.0000 C   0  0  0  0  0  0  0  0  0  0  0  0
    2.8579   -6.6000    0.0000 C   0  0  0  0  0  0  0  0  0  0  0  0
    2.8579   -7.4250    0.0000 C   0  0  0  0  0  0  0  0  0  0  0  0
    2.1434   -7.8375    0.0000 C   0  0  0  0  0  0  0  0  0  0  0  0
    1.4289   -7.4250    0.0000 C   0  0  0  0  0  0  0  0  0  0  0  0
    1.4289   -6.6000    0.0000 C   0  0  0  0  0  0  0  0  0  0  0  0
    0.7145   -6.1875    0.0000 C   0  0  0  0  0  0  0  0  0  0  0  0
    3.5724   -7.8375    0.0000 S   0  0  0  0  0  0  0  0  0  0  0  0
    3.1599   -8.5520    0.0000 O   0  0  0  0  0  0  0  0  0  0  0  0
    3.9849   -7.1230    0.0000 O   0  0  0  0  0  0  0  0  0  0  0  0
    4.2868   -8.2500    0.0000 N   0  0  0  0  0  0  0  0  0  0  0  0
    5.0013   -7.8375    0.0000 C   0  0  0  0  0  0  0  0  0  0  0  0
    5.7158   -7.4250    0.0000 C   0  0  0  0  0  0  0  0  0  0  0  0
    5.4138   -8.5520    0.0000 C   0  0  0  0  0  0  0  0  0  0  0  0
    4.5888   -7.1230    0.0000 C   0  0  0  0  0  0  0  0  0  0  0  0
    0.7145   -3.7125    0.0000 N   0  0  0  0  0  0  0  0  0  0  0  0
    0.7145   -2.8875    0.0000 C   0  0  0  0  0  0  0  0  0  0  0  0
  1  2  1  0  0  0  0
  2  3  2  0  0  0  0
  3  4  1  0  0  0  0
  4  5  2  0  0  0  0
  5  6  1  0  0  0  0
  6  7  1  0  0  0  0
  7  8  2  0  0  0  0
  7  9  1  0  0  0  0
  9 10  2  0  0  0  0
 10 11  1  0  0  0  0
 11 12  2  0  0  0  0
 12 13  1  0  0  0  0
 13 14  2  0  0  0  0
  9 14  1  0  0  0  0
 14 15  1  0  0  0  0
 11 16  1  0  0  0  0
 16 17  2  0  0  0  0
 16 18  2  0  0  0  0
 16 19  1  0  0  0  0
 19 20  1  0  0  0  0
 20 21  1  0  0  0  0
 20 22  1  0  0  0  0
 20 23  1  0  0  0  0
  5 24  1  0  0  0  0
 24 25  2  0  0  0  0
  2 25  1  0  0  0  0
M  END
> <COMPOUND_ID>
MMV020289

$$$$

  Mrv0541 04191616472D          

 29 31  0  0  0  0            999 V2000
    5.7158   -1.6500    0.0000 C   0  0  0  0  0  0  0  0  0  0  0  0
    5.0013   -1.2375    0.0000 C   0  0  0  0  0  0  0  0  0  0  0  0
    4.2868   -1.6500    0.0000 C   0  0  0  0  0  0  0  0  0  0  0  0
    5.0013   -0.4125    0.0000 C   0  0  0  0  0  0  0  0  0  0  0  0
    4.2868    0.0000    0.0000 N   0  0  0  0  0  0  0  0  0  0  0  0
    3.5724   -0.4125    0.0000 C   0  0  0  0  0  0  0  0  0  0  0  0
    3.5724   -1.2375    0.0000 O   0  0  0  0  0  0  0  0  0  0  0  0
    2.8579    0.0000    0.0000 C   0  0  0  0  0  0  0  0  0  0  0  0
    2.1434   -0.4125    0.0000 C   0  0  0  0  0  0  0  0  0  0  0  0
    2.1434   -1.2375    0.0000 C   0  0  0  0  0  0  0  0  0  0  0  0
    1.4289   -1.6500    0.0000 C   0  0  0  0  0  0  0  0  0  0  0  0
    0.7145   -1.2375    0.0000 C   0  0  0  0  0  0  0  0  0  0  0  0
    0.7145   -0.4125    0.0000 C   0  0  0  0  0  0  0  0  0  0  0  0
    0.0000    0.0000    0.0000 C   0  0  0  0  0  0  0  0  0  0  0  0
    0.0000    0.8250    0.0000 C   0  0  0  0  0  0  0  0  0  0  0  0
    0.7145    1.2375    0.0000 C   0  0  0  0  0  0  0  0  0  0  0  0
    1.4289    0.8250    0.0000 C   0  0  0  0  0  0  0  0  0  0  0  0
    1.4289    0.0000    0.0000 C   0  0  0  0  0  0  0  0  0  0  0  0
    5.7158    0.0000    0.0000 C   0  0  0  0  0  0  0  0  0  0  0  0
    5.7158    0.8250    0.0000 O   0  0  0  0  0  0  0  0  0  0  0  0
    6.4302   -0.4125    0.0000 N   0  0  0  0  0  0  0  0  0  0  0  0
    7.1447    0.0000    0.0000 C   0  0  0  0  0  0  0  0  0  0  0  0
    7.1447    0.8250    0.0000 C   0  0  0  0  0  0  0  0  0  0  0  0
    7.8592    1.2375    0.0000 C   0  0  0  0  0  0  0  0  0  0  0  0
    8.5737    0.8250    0.0000 C   0  0  0  0  0  0  0  0  0  0  0  0
    8.5737    0.0000    0.0000 C   0  0  0  0  0  0  0  0  0  0  0  0
    7.8592   -0.4125    0.0000 C   0  0  0  0  0  0  0  0  0  0  0  0
    9.2881   -0.4125    0.0000 C   0  0  0  0  0  0  0  0  0  0  0  0
   10.0026   -0.8250    0.0000 N   0  0  0  0  0  0  0  0  0  0  0  0
  1  2  1  0  0  0  0
  2  3  1  0  0  0  0
  2  4  1  0  0  0  0
  4  5  1  0  0  0  0
  5  6  1  0  0  0  0
  6  7  2  0  0  0  0
  6  8  1  0  0  0  0
  8  9  1  0  0  0  0
  9 10  1  0  0  0  0
 10 11  2  0  0  0  0
 11 12  1  0  0  0  0
 12 13  2  0  0  0  0
 13 14  1  0  0  0  0
 14 15  2  0  0  0  0
 15 16  1  0  0  0  0
 16 17  2  0  0  0  0
 17 18  1  0  0  0  0
  9 18  2  0  0  0  0
 13 18  1  0  0  0  0
  4 19  1  0  0  0  0
 19 20  2  0  0  0  0
 19 21  1  0  0  0  0
 21 22  1  0  0  0  0
 22 23  2  0  0  0  0
 23 24  1  0  0  0  0
 24 25  2  0  0  0  0
 25 26  1  0  0  0  0
 26 27  2  0  0  0  0
 22 27  1  0  0  0  0
 26 28  1  0  0  0  0
 28 29  3  0  0  0  0
M  END
> <COMPOUND_ID>
MMV020591

$$$$

  Mrv0541 04191616472D          

 29 32  0  0  0  0            999 V2000
   -5.0013    2.8875    0.0000 C   0  0  0  0  0  0  0  0  0  0  0  0
   -4.2868    2.4750    0.0000 C   0  0  0  0  0  0  0  0  0  0  0  0
   -3.5724    2.8875    0.0000 C   0  0  0  0  0  0  0  0  0  0  0  0
   -2.8579    2.4750    0.0000 C   0  0  0  0  0  0  0  0  0  0  0  0
   -2.8579    1.6500    0.0000 C   0  0  0  0  0  0  0  0  0  0  0  0
   -3.5724    1.2375    0.0000 C   0  0  0  0  0  0  0  0  0  0  0  0
   -4.2868    1.6500    0.0000 C   0  0  0  0  0  0  0  0  0  0  0  0
   -2.1434    1.2375    0.0000 S   0  0  0  0  0  0  0  0  0  0  0  0
   -2.5559    0.5230    0.0000 O   0  0  0  0  0  0  0  0  0  0  0  0
   -1.7309    1.9520    0.0000 O   0  0  0  0  0  0  0  0  0  0  0  0
   -1.4289    0.8250    0.0000 N   0  0  0  0  0  0  0  0  0  0  0  0
   -0.7145    1.2375    0.0000 C   0  0  0  0  0  0  0  0  0  0  0  0
    0.0000    0.8250    0.0000 C   0  0  0  0  0  0  0  0  0  0  0  0
    0.0000   -0.0000    0.0000 N   0  0  0  0  0  0  0  0  0  0  0  0
   -0.7145   -0.4125    0.0000 C   0  0  0  0  0  0  0  0  0  0  0  0
   -1.4289   -0.0000    0.0000 C   0  0  0  0  0  0  0  0  0  0  0  0
    0.7145   -0.4125    0.0000 C   0  0  0  0  0  0  0  0  0  0  0  0
    1.4289   -0.0000    0.0000 O   0  0  0  0  0  0  0  0  0  0  0  0
    0.7145   -1.2375    0.0000 C   0  0  0  0  0  0  0  0  0  0  0  0
    1.3819   -1.7224    0.0000 C   0  0  0  0  0  0  0  0  0  0  0  0
    1.1270   -2.5070    0.0000 C   0  0  0  0  0  0  0  0  0  0  0  0
    0.3020   -2.5070    0.0000 N   0  0  0  0  0  0  0  0  0  0  0  0
    0.0470   -1.7224    0.0000 N   0  0  0  0  0  0  0  0  0  0  0  0
    1.6119   -3.1745    0.0000 C   0  0  0  0  0  0  0  0  0  0  0  0
    2.4324   -3.0882    0.0000 C   0  0  0  0  0  0  0  0  0  0  0  0
    2.9173   -3.7557    0.0000 C   0  0  0  0  0  0  0  0  0  0  0  0
    2.5817   -4.5094    0.0000 C   0  0  0  0  0  0  0  0  0  0  0  0
    1.7613   -4.5956    0.0000 C   0  0  0  0  0  0  0  0  0  0  0  0
    1.2763   -3.9282    0.0000 C   0  0  0  0  0  0  0  0  0  0  0  0
  1  2  1  0  0  0  0
  2  3  2  0  0  0  0
  3  4  1  0  0  0  0
  4  5  2  0  0  0  0
  5  6  1  0  0  0  0
  6  7  2  0  0  0  0
  2  7  1  0  0  0  0
  5  8  1  0  0  0  0
  8  9  2  0  0  0  0
  8 10  2  0  0  0  0
  8 11  1  0  0  0  0
 11 12  1  0  0  0  0
 12 13  1  0  0  0  0
 13 14  1  0  0  0  0
 14 15  1  0  0  0  0
 15 16  1  0  0  0  0
 11 16  1  0  0  0  0
 14 17  1  0  0  0  0
 17 18  2  0  0  0  0
 17 19  1  0  0  0  0
 19 20  1  0  0  0  0
 20 21  2  0  0  0  0
 21 22  1  0  0  0  0
 22 23  1  0  0  0  0
 19 23  2  0  0  0  0
 21 24  1  0  0  0  0
 24 25  2  0  0  0  0
 25 26  1  0  0  0  0
 26 27  2  0  0  0  0
 27 28  1  0  0  0  0
 28 29  2  0  0  0  0
 24 29  1  0  0  0  0
M  END
> <COMPOUND_ID>
MMV019742

$$$$

  Mrv0541 04191616472D          

 30 33  0  0  0  0            999 V2000
    2.5820   -6.1716    0.0000 Cl  0  0  0  0  0  0  0  0  0  0  0  0
    2.0300   -5.5585    0.0000 C   0  0  0  0  0  0  0  0  0  0  0  0
    1.2230   -5.7301    0.0000 C   0  0  0  0  0  0  0  0  0  0  0  0
    0.6710   -5.1170    0.0000 C   0  0  0  0  0  0  0  0  0  0  0  0
    0.9259   -4.3323    0.0000 C   0  0  0  0  0  0  0  0  0  0  0  0
    1.7329   -4.1608    0.0000 C   0  0  0  0  0  0  0  0  0  0  0  0
    2.2849   -4.7739    0.0000 C   0  0  0  0  0  0  0  0  0  0  0  0
    0.3739   -3.7192    0.0000 S   0  0  0  0  0  0  0  0  0  0  0  0
    0.9870   -3.1672    0.0000 O   0  0  0  0  0  0  0  0  0  0  0  0
   -0.2392   -4.2713    0.0000 O   0  0  0  0  0  0  0  0  0  0  0  0
   -0.1781   -3.1062    0.0000 N   0  0  0  0  0  0  0  0  0  0  0  0
    0.0768   -2.3215    0.0000 C   0  0  0  0  0  0  0  0  0  0  0  0
    0.8838   -2.1500    0.0000 C   0  0  0  0  0  0  0  0  0  0  0  0
    1.1387   -1.3654    0.0000 C   0  0  0  0  0  0  0  0  0  0  0  0
    0.6538   -0.6979    0.0000 C   0  0  0  0  0  0  0  0  0  0  0  0
    1.1387   -0.0305    0.0000 N   0  0  0  0  0  0  0  0  0  0  0  0
    1.9233   -0.2854    0.0000 C   0  0  0  0  0  0  0  0  0  0  0  0
    2.6378    0.1271    0.0000 C   0  0  0  0  0  0  0  0  0  0  0  0
    3.3523   -0.2854    0.0000 C   0  0  0  0  0  0  0  0  0  0  0  0
    3.3523   -1.1104    0.0000 C   0  0  0  0  0  0  0  0  0  0  0  0
    2.6378   -1.5229    0.0000 C   0  0  0  0  0  0  0  0  0  0  0  0
    1.9233   -1.1104    0.0000 C   0  0  0  0  0  0  0  0  0  0  0  0
   -0.4752   -1.7084    0.0000 C   0  0  0  0  0  0  0  0  0  0  0  0
   -0.2203   -0.9238    0.0000 O   0  0  0  0  0  0  0  0  0  0  0  0
   -1.2822   -1.8800    0.0000 N   0  0  0  0  0  0  0  0  0  0  0  0
   -1.5371   -2.6646    0.0000 C   0  0  0  0  0  0  0  0  0  0  0  0
   -2.3441   -2.8361    0.0000 C   0  0  0  0  0  0  0  0  0  0  0  0
   -2.8961   -2.2230    0.0000 C   0  0  0  0  0  0  0  0  0  0  0  0
   -2.6412   -1.4384    0.0000 C   0  0  0  0  0  0  0  0  0  0  0  0
   -1.8342   -1.2669    0.0000 C   0  0  0  0  0  0  0  0  0  0  0  0
  1  2  1  0  0  0  0
  2  3  2  0  0  0  0
  3  4  1  0  0  0  0
  4  5  2  0  0  0  0
  5  6  1  0  0  0  0
  6  7  2  0  0  0  0
  2  7  1  0  0  0  0
  5  8  1  0  0  0  0
  8  9  2  0  0  0  0
  8 10  2  0  0  0  0
  8 11  1  0  0  0  0
 11 12  1  0  0  0  0
 12 13  1  0  0  0  0
 13 14  1  0  0  0  0
 14 15  2  0  0  0  0
 15 16  1  0  0  0  0
 16 17  1  0  0  0  0
 17 18  2  0  0  0  0
 18 19  1  0  0  0  0
 19 20  2  0  0  0  0
 20 21  1  0  0  0  0
 21 22  2  0  0  0  0
 14 22  1  0  0  0  0
 17 22  1  0  0  0  0
 12 23  1  0  0  0  0
 23 24  2  0  0  0  0
 23 25  1  0  0  0  0
 25 26  1  0  0  0  0
 26 27  1  0  0  0  0
 27 28  1  0  0  0  0
 28 29  1  0  0  0  0
 29 30  1  0  0  0  0
 25 30  1  0  0  0  0
M  END
> <COMPOUND_ID>
MMV085210

$$$$

  Mrv0541 04191616472D          

 23 25  0  0  0  0            999 V2000
    5.5585   -0.8224    0.0000 C   0  0  0  0  0  0  0  0  0  0  0  0
    5.5585   -1.6474    0.0000 C   0  0  0  0  0  0  0  0  0  0  0  0
    6.2259   -2.1323    0.0000 O   0  0  0  0  0  0  0  0  0  0  0  0
    5.9710   -2.9169    0.0000 N   0  0  0  0  0  0  0  0  0  0  0  0
    5.1460   -2.9169    0.0000 C   0  0  0  0  0  0  0  0  0  0  0  0
    4.8910   -2.1323    0.0000 C   0  0  0  0  0  0  0  0  0  0  0  0
    4.6611   -3.5843    0.0000 C   0  0  0  0  0  0  0  0  0  0  0  0
    4.9966   -4.3380    0.0000 O   0  0  0  0  0  0  0  0  0  0  0  0
    3.8406   -3.4981    0.0000 N   0  0  0  0  0  0  0  0  0  0  0  0
    3.3556   -4.1655    0.0000 C   0  0  0  0  0  0  0  0  0  0  0  0
    3.6106   -4.9502    0.0000 C   0  0  0  0  0  0  0  0  0  0  0  0
    2.9431   -5.4351    0.0000 N   0  0  0  0  0  0  0  0  0  0  0  0
    2.2757   -4.9502    0.0000 N   0  0  0  0  0  0  0  0  0  0  0  0
    1.4911   -5.2051    0.0000 C   0  0  0  0  0  0  0  0  0  0  0  0
    0.8780   -4.6531    0.0000 C   0  0  0  0  0  0  0  0  0  0  0  0
    0.0934   -4.9080    0.0000 C   0  0  0  0  0  0  0  0  0  0  0  0
   -0.5197   -4.3560    0.0000 C   0  0  0  0  0  0  0  0  0  0  0  0
   -0.3482   -3.5490    0.0000 C   0  0  0  0  0  0  0  0  0  0  0  0
   -0.9613   -2.9970    0.0000 Cl  0  0  0  0  0  0  0  0  0  0  0  0
    0.4364   -3.2941    0.0000 C   0  0  0  0  0  0  0  0  0  0  0  0
    1.0495   -3.8461    0.0000 C   0  0  0  0  0  0  0  0  0  0  0  0
    1.8341   -3.5912    0.0000 Cl  0  0  0  0  0  0  0  0  0  0  0  0
    2.5306   -4.1655    0.0000 C   0  0  0  0  0  0  0  0  0  0  0  0
  1  2  1  0  0  0  0
  2  3  1  0  0  0  0
  3  4  1  0  0  0  0
  4  5  2  0  0  0  0
  5  6  1  0  0  0  0
  2  6  2  0  0  0  0
  5  7  1  0  0  0  0
  7  8  2  0  0  0  0
  7  9  1  0  0  0  0
  9 10  1  0  0  0  0
 10 11  1  0  0  0  0
 11 12  2  0  0  0  0
 12 13  1  0  0  0  0
 13 14  1  0  0  0  0
 14 15  1  0  0  0  0
 15 16  2  0  0  0  0
 16 17  1  0  0  0  0
 17 18  2  0  0  0  0
 18 19  1  0  0  0  0
 18 20  1  0  0  0  0
 20 21  2  0  0  0  0
 15 21  1  0  0  0  0
 21 22  1  0  0  0  0
 13 23  1  0  0  0  0
 10 23  2  0  0  0  0
M  END
> <COMPOUND_ID>
MMV009054

$$$$

  Mrv0541 04191616472D          

 25 28  0  0  0  0            999 V2000
    4.0668    2.3479    0.0000 C   0  0  0  0  0  0  0  0  0  0  0  0
    3.3523    1.9354    0.0000 C   0  0  0  0  0  0  0  0  0  0  0  0
    3.3523    1.1104    0.0000 C   0  0  0  0  0  0  0  0  0  0  0  0
    2.6378    0.6979    0.0000 C   0  0  0  0  0  0  0  0  0  0  0  0
    2.6378   -0.1271    0.0000 N   0  0  0  0  0  0  0  0  0  0  0  0
    3.3523   -0.5396    0.0000 C   0  0  0  0  0  0  0  0  0  0  0  0
    4.0668   -0.1271    0.0000 C   0  0  0  0  0  0  0  0  0  0  0  0
    4.7812   -0.5396    0.0000 C   0  0  0  0  0  0  0  0  0  0  0  0
    4.7812   -1.3646    0.0000 N   0  0  0  0  0  0  0  0  0  0  0  0
    4.0668   -1.7771    0.0000 C   0  0  0  0  0  0  0  0  0  0  0  0
    3.3523   -1.3646    0.0000 C   0  0  0  0  0  0  0  0  0  0  0  0
    1.9233    1.1104    0.0000 N   0  0  0  0  0  0  0  0  0  0  0  0
    1.1387    0.8555    0.0000 N   0  0  0  0  0  0  0  0  0  0  0  0
    0.6538    1.5229    0.0000 C   0  0  0  0  0  0  0  0  0  0  0  0
   -0.1712    1.5229    0.0000 C   0  0  0  0  0  0  0  0  0  0  0  0
    1.1387    2.1904    0.0000 C   0  0  0  0  0  0  0  0  0  0  0  0
    0.8838    2.9750    0.0000 C   0  0  0  0  0  0  0  0  0  0  0  0
    0.0768    3.1465    0.0000 C   0  0  0  0  0  0  0  0  0  0  0  0
   -0.1781    3.9312    0.0000 C   0  0  0  0  0  0  0  0  0  0  0  0
    0.3739    4.5442    0.0000 C   0  0  0  0  0  0  0  0  0  0  0  0
    1.1809    4.3727    0.0000 C   0  0  0  0  0  0  0  0  0  0  0  0
    1.4358    3.5881    0.0000 C   0  0  0  0  0  0  0  0  0  0  0  0
    2.2428    3.4166    0.0000 Cl  0  0  0  0  0  0  0  0  0  0  0  0
    1.9233    1.9354    0.0000 C   0  0  0  0  0  0  0  0  0  0  0  0
    2.6378    2.3479    0.0000 N   0  0  0  0  0  0  0  0  0  0  0  0
  1  2  1  0  0  0  0
  2  3  1  0  0  0  0
  3  4  2  0  0  0  0
  4  5  1  0  0  0  0
  5  6  1  0  0  0  0
  6  7  2  0  0  0  0
  7  8  1  0  0  0  0
  8  9  2  0  0  0  0
  9 10  1  0  0  0  0
 10 11  2  0  0  0  0
  6 11  1  0  0  0  0
  4 12  1  0  0  0  0
 12 13  1  0  0  0  0
 13 14  2  0  0  0  0
 14 15  1  0  0  0  0
 14 16  1  0  0  0  0
 16 17  1  0  0  0  0
 17 18  2  0  0  0  0
 18 19  1  0  0  0  0
 19 20  2  0  0  0  0
 20 21  1  0  0  0  0
 21 22  2  0  0  0  0
 17 22  1  0  0  0  0
 22 23  1  0  0  0  0
 16 24  2  0  0  0  0
 12 24  1  0  0  0  0
 24 25  1  0  0  0  0
  2 25  2  0  0  0  0
M  END
> <COMPOUND_ID>
MMV016136

$$$$

  Mrv0541 04191616472D          

 32 37  0  0  0  0            999 V2000
    1.8982   -4.9371    0.0000 C   0  0  0  0  0  0  0  0  0  0  0  0
    2.6333   -4.5626    0.0000 C   0  0  1  0  0  0  0  0  0  0  0  0
    3.0078   -5.2977    0.0000 O   0  0  0  0  0  0  0  0  0  0  0  0
    2.2588   -3.8275    0.0000 C   0  0  0  0  0  0  0  0  0  0  0  0
    2.9938   -3.4530    0.0000 C   0  0  1  0  0  0  0  0  0  0  0  0
    3.3684   -4.1880    0.0000 C   0  0  0  0  0  0  0  0  0  0  0  0
    3.2488   -2.6683    0.0000 C   0  0  0  0  0  0  0  0  0  0  0  0
    2.7639   -2.0009    0.0000 N   0  0  0  0  0  0  0  0  0  0  0  0
    3.2488   -1.3335    0.0000 C   0  0  0  0  0  0  0  0  0  0  0  0
    2.9938   -0.5488    0.0000 C   0  0  0  0  0  0  0  0  0  0  0  0
    2.1869   -0.3773    0.0000 C   0  0  0  0  0  0  0  0  0  0  0  0
    1.9319    0.4073    0.0000 C   0  0  0  0  0  0  0  0  0  0  0  0
    2.4840    1.0204    0.0000 C   0  0  0  0  0  0  0  0  0  0  0  0
    2.2290    1.8050    0.0000 C   0  0  0  0  0  0  0  0  0  0  0  0
    2.7811    2.4181    0.0000 C   0  0  0  0  0  0  0  0  0  0  0  0
    3.5880    2.2466    0.0000 C   0  0  0  0  0  0  0  0  0  0  0  0
    3.8430    1.4620    0.0000 N   0  0  0  0  0  0  0  0  0  0  0  0
    3.2909    0.8489    0.0000 C   0  0  0  0  0  0  0  0  0  0  0  0
    3.5459    0.0643    0.0000 C   0  0  0  0  0  0  0  0  0  0  0  0
    4.1401    2.8597    0.0000 C   0  0  0  0  0  0  0  0  0  0  0  0
    3.8851    3.6443    0.0000 C   0  0  0  0  0  0  0  0  0  0  0  0
    4.4372    4.2574    0.0000 C   0  0  0  0  0  0  0  0  0  0  0  0
    5.2441    4.0859    0.0000 C   0  0  0  0  0  0  0  0  0  0  0  0
    5.4991    3.3013    0.0000 C   0  0  0  0  0  0  0  0  0  0  0  0
    4.9470    2.6882    0.0000 C   0  0  0  0  0  0  0  0  0  0  0  0
    4.0334   -1.5884    0.0000 C   0  0  0  0  0  0  0  0  0  0  0  0
    4.7479   -1.1759    0.0000 C   0  0  0  0  0  0  0  0  0  0  0  0
    4.7479   -0.3509    0.0000 N   0  0  0  0  0  0  0  0  0  0  0  0
    5.4623   -1.5884    0.0000 N   0  0  0  0  0  0  0  0  0  0  0  0
    5.4623   -2.4134    0.0000 C   0  0  0  0  0  0  0  0  0  0  0  0
    4.7479   -2.8259    0.0000 C   0  0  0  0  0  0  0  0  0  0  0  0
    4.0334   -2.4134    0.0000 N   0  0  0  0  0  0  0  0  0  0  0  0
  2  1  1  1  0  0  0
  2  3  1  6  0  0  0
  2  4  1  0  0  0  0
  4  5  1  0  0  0  0
  5  6  1  0  0  0  0
  2  6  1  0  0  0  0
  5  7  1  6  0  0  0
  7  8  2  0  0  0  0
  8  9  1  0  0  0  0
  9 10  1  0  0  0  0
 10 11  2  0  0  0  0
 11 12  1  0  0  0  0
 12 13  2  0  0  0  0
 13 14  1  0  0  0  0
 14 15  2  0  0  0  0
 15 16  1  0  0  0  0
 16 17  2  0  0  0  0
 17 18  1  0  0  0  0
 13 18  1  0  0  0  0
 18 19  2  0  0  0  0
 10 19  1  0  0  0  0
 16 20  1  0  0  0  0
 20 21  2  0  0  0  0
 21 22  1  0  0  0  0
 22 23  2  0  0  0  0
 23 24  1  0  0  0  0
 24 25  2  0  0  0  0
 20 25  1  0  0  0  0
  9 26  2  0  0  0  0
 26 27  1  0  0  0  0
 27 28  1  0  0  0  0
 27 29  2  0  0  0  0
 29 30  1  0  0  0  0
 30 31  2  0  0  0  0
 31 32  1  0  0  0  0
  7 32  1  0  0  0  0
 26 32  1  0  0  0  0
M  END
> <COMPOUND_ID>
MMV676605

$$$$

  Mrv0541 04191616472D          

 31 35  0  0  0  0            999 V2000
    1.7329   -4.1608    0.0000 Cl  0  0  0  0  0  0  0  0  0  0  0  0
    1.1809   -3.5477    0.0000 C   0  0  0  0  0  0  0  0  0  0  0  0
    0.3739   -3.7192    0.0000 C   0  0  0  0  0  0  0  0  0  0  0  0
   -0.1781   -3.1062    0.0000 C   0  0  0  0  0  0  0  0  0  0  0  0
    0.0768   -2.3215    0.0000 C   0  0  0  0  0  0  0  0  0  0  0  0
    0.8838   -2.1500    0.0000 C   0  0  0  0  0  0  0  0  0  0  0  0
    1.4358   -2.7631    0.0000 C   0  0  0  0  0  0  0  0  0  0  0  0
    1.1387   -1.3654    0.0000 C   0  0  0  0  0  0  0  0  0  0  0  0
    0.6538   -0.6979    0.0000 C   0  0  0  0  0  0  0  0  0  0  0  0
    1.1387   -0.0305    0.0000 N   0  0  0  0  0  0  0  0  0  0  0  0
    1.9233   -0.2854    0.0000 N   0  0  0  0  0  0  0  0  0  0  0  0
    2.6378    0.1271    0.0000 C   0  0  0  0  0  0  0  0  0  0  0  0
    3.3523   -0.2854    0.0000 C   0  0  0  0  0  0  0  0  0  0  0  0
    3.3523   -1.1104    0.0000 C   0  0  0  0  0  0  0  0  0  0  0  0
    2.6378   -1.5229    0.0000 N   0  0  0  0  0  0  0  0  0  0  0  0
    1.9233   -1.1104    0.0000 C   0  0  0  0  0  0  0  0  0  0  0  0
    4.0668   -1.5229    0.0000 C   0  0  0  0  0  0  0  0  0  0  0  0
    4.0668   -2.3479    0.0000 O   0  0  0  0  0  0  0  0  0  0  0  0
    4.7812   -1.1104    0.0000 N   0  0  0  0  0  0  0  0  0  0  0  0
    5.4957   -1.5229    0.0000 C   0  0  0  0  0  0  0  0  0  0  0  0
    6.2102   -1.1104    0.0000 C   0  0  0  0  0  0  0  0  0  0  0  0
    6.9246   -1.5229    0.0000 C   0  0  0  0  0  0  0  0  0  0  0  0
    6.9246   -2.3479    0.0000 C   0  0  0  0  0  0  0  0  0  0  0  0
    6.2102   -2.7604    0.0000 C   0  0  0  0  0  0  0  0  0  0  0  0
    5.4957   -2.3479    0.0000 C   0  0  0  0  0  0  0  0  0  0  0  0
    7.6391   -2.7604    0.0000 N   0  0  0  0  0  0  0  0  0  0  0  0
    8.3536   -2.3479    0.0000 C   0  0  0  0  0  0  0  0  0  0  0  0
    9.0681   -2.7604    0.0000 C   0  0  0  0  0  0  0  0  0  0  0  0
    9.0681   -3.5854    0.0000 N   0  0  0  0  0  0  0  0  0  0  0  0
    8.3536   -3.9979    0.0000 C   0  0  0  0  0  0  0  0  0  0  0  0
    7.6391   -3.5854    0.0000 C   0  0  0  0  0  0  0  0  0  0  0  0
  1  2  1  0  0  0  0
  2  3  2  0  0  0  0
  3  4  1  0  0  0  0
  4  5  2  0  0  0  0
  5  6  1  0  0  0  0
  6  7  2  0  0  0  0
  2  7  1  0  0  0  0
  6  8  1  0  0  0  0
  8  9  1  0  0  0  0
  9 10  2  0  0  0  0
 10 11  1  0  0  0  0
 11 12  1  0  0  0  0
 12 13  2  0  0  0  0
 13 14  1  0  0  0  0
 14 15  2  0  0  0  0
 15 16  1  0  0  0  0
  8 16  2  0  0  0  0
 11 16  1  0  0  0  0
 14 17  1  0  0  0  0
 17 18  2  0  0  0  0
 17 19  1  0  0  0  0
 19 20  1  0  0  0  0
 20 21  2  0  0  0  0
 21 22  1  0  0  0  0
 22 23  2  0  0  0  0
 23 24  1  0  0  0  0
 24 25  2  0  0  0  0
 20 25  1  0  0  0  0
 23 26  1  0  0  0  0
 26 27  1  0  0  0  0
 27 28  1  0  0  0  0
 28 29  1  0  0  0  0
 29 30  1  0  0  0  0
 30 31  1  0  0  0  0
 26 31  1  0  0  0  0
M  END
> <COMPOUND_ID>
MMV022478

$$$$

  Mrv0541 04191616472D          

 28 31  0  0  0  0            999 V2000
    1.0102   -8.6970    0.0000 C   0  0  0  0  0  0  0  0  0  0  0  0
    1.2652   -7.9124    0.0000 O   0  0  0  0  0  0  0  0  0  0  0  0
    0.7132   -7.2993    0.0000 C   0  0  0  0  0  0  0  0  0  0  0  0
   -0.0938   -7.4708    0.0000 C   0  0  0  0  0  0  0  0  0  0  0  0
   -0.6459   -6.8577    0.0000 C   0  0  0  0  0  0  0  0  0  0  0  0
   -0.3909   -6.0731    0.0000 C   0  0  0  0  0  0  0  0  0  0  0  0
    0.4161   -5.9016    0.0000 C   0  0  0  0  0  0  0  0  0  0  0  0
    0.6710   -5.1170    0.0000 C   0  0  0  0  0  0  0  0  0  0  0  0
    0.1190   -4.5039    0.0000 C   0  0  0  0  0  0  0  0  0  0  0  0
   -0.6880   -4.6754    0.0000 O   0  0  0  0  0  0  0  0  0  0  0  0
    0.3739   -3.7192    0.0000 N   0  0  0  0  0  0  0  0  0  0  0  0
   -0.1781   -3.1062    0.0000 C   0  0  0  0  0  0  0  0  0  0  0  0
    0.0768   -2.3215    0.0000 C   0  0  0  0  0  0  0  0  0  0  0  0
    0.8838   -2.1500    0.0000 C   0  0  0  0  0  0  0  0  0  0  0  0
    1.4358   -2.7631    0.0000 C   0  0  0  0  0  0  0  0  0  0  0  0
    1.1809   -3.5477    0.0000 C   0  0  0  0  0  0  0  0  0  0  0  0
    1.1387   -1.3654    0.0000 N   0  0  0  0  0  0  0  0  0  0  0  0
    0.6538   -0.6979    0.0000 C   0  0  0  0  0  0  0  0  0  0  0  0
   -0.1712   -0.6979    0.0000 C   0  0  0  0  0  0  0  0  0  0  0  0
    1.1387   -0.0305    0.0000 N   0  0  0  0  0  0  0  0  0  0  0  0
    1.9233   -0.2854    0.0000 C   0  0  0  0  0  0  0  0  0  0  0  0
    2.6378    0.1271    0.0000 C   0  0  0  0  0  0  0  0  0  0  0  0
    3.3523   -0.2854    0.0000 C   0  0  0  0  0  0  0  0  0  0  0  0
    3.3523   -1.1104    0.0000 C   0  0  0  0  0  0  0  0  0  0  0  0
    4.0668   -1.5229    0.0000 F   0  0  0  0  0  0  0  0  0  0  0  0
    2.6378   -1.5229    0.0000 C   0  0  0  0  0  0  0  0  0  0  0  0
    1.9233   -1.1104    0.0000 C   0  0  0  0  0  0  0  0  0  0  0  0
    0.9681   -6.5147    0.0000 C   0  0  0  0  0  0  0  0  0  0  0  0
  1  2  1  0  0  0  0
  2  3  1  0  0  0  0
  3  4  2  0  0  0  0
  4  5  1  0  0  0  0
  5  6  2  0  0  0  0
  6  7  1  0  0  0  0
  7  8  1  0  0  0  0
  8  9  1  0  0  0  0
  9 10  2  0  0  0  0
  9 11  1  0  0  0  0
 11 12  1  0  0  0  0
 12 13  1  0  0  0  0
 13 14  1  0  0  0  0
 14 15  1  0  0  0  0
 15 16  1  0  0  0  0
 11 16  1  0  0  0  0
 14 17  1  0  0  0  0
 17 18  1  0  0  0  0
 18 19  1  0  0  0  0
 18 20  2  0  0  0  0
 20 21  1  0  0  0  0
 21 22  2  0  0  0  0
 22 23  1  0  0  0  0
 23 24  2  0  0  0  0
 24 25  1  0  0  0  0
 24 26  1  0  0  0  0
 26 27  2  0  0  0  0
 17 27  1  0  0  0  0
 21 27  1  0  0  0  0
  7 28  2  0  0  0  0
  3 28  1  0  0  0  0
M  END
> <COMPOUND_ID>
MMV020081

$$$$

  Mrv0541 04191616472D          

 29 32  0  0  0  0            999 V2000
    1.4289   -6.6000    0.0000 Cl  0  0  0  0  0  0  0  0  0  0  0  0
    1.4289   -7.4250    0.0000 C   0  0  0  0  0  0  0  0  0  0  0  0
    2.1434   -7.8375    0.0000 C   0  0  0  0  0  0  0  0  0  0  0  0
    2.1434   -8.6625    0.0000 C   0  0  0  0  0  0  0  0  0  0  0  0
    1.4289   -9.0750    0.0000 C   0  0  0  0  0  0  0  0  0  0  0  0
    0.7145   -8.6625    0.0000 C   0  0  0  0  0  0  0  0  0  0  0  0
    0.0000   -9.0750    0.0000 N   0  0  0  0  0  0  0  0  0  0  0  0
    0.0000   -9.9000    0.0000 C   0  0  0  0  0  0  0  0  0  0  0  0
    0.7145  -10.3125    0.0000 O   0  0  0  0  0  0  0  0  0  0  0  0
   -0.7145  -10.3125    0.0000 C   0  0  0  0  0  0  0  0  0  0  0  0
   -0.7145  -11.1375    0.0000 C   0  0  0  0  0  0  0  0  0  0  0  0
   -1.4289  -11.5500    0.0000 N   0  0  0  0  0  0  0  0  0  0  0  0
   -2.1434  -11.1375    0.0000 C   0  0  0  0  0  0  0  0  0  0  0  0
   -2.8579  -11.5500    0.0000 N   0  0  0  0  0  0  0  0  0  0  0  0
   -2.8579  -12.3750    0.0000 C   0  0  0  0  0  0  0  0  0  0  0  0
   -3.5724  -12.7875    0.0000 C   0  0  0  0  0  0  0  0  0  0  0  0
   -4.2868  -12.3750    0.0000 N   0  0  0  0  0  0  0  0  0  0  0  0
   -4.2868  -11.5500    0.0000 C   0  0  0  0  0  0  0  0  0  0  0  0
   -3.5724  -11.1375    0.0000 C   0  0  0  0  0  0  0  0  0  0  0  0
   -5.0013  -12.7875    0.0000 C   0  0  0  0  0  0  0  0  0  0  0  0
   -5.0013  -13.6125    0.0000 C   0  0  0  0  0  0  0  0  0  0  0  0
   -5.7158  -14.0250    0.0000 C   0  0  0  0  0  0  0  0  0  0  0  0
   -6.4302  -13.6125    0.0000 N   0  0  0  0  0  0  0  0  0  0  0  0
   -6.4302  -12.7875    0.0000 C   0  0  0  0  0  0  0  0  0  0  0  0
   -5.7158  -12.3750    0.0000 C   0  0  0  0  0  0  0  0  0  0  0  0
   -2.1434  -10.3125    0.0000 C   0  0  0  0  0  0  0  0  0  0  0  0
   -2.8579   -9.9000    0.0000 Cl  0  0  0  0  0  0  0  0  0  0  0  0
   -1.4289   -9.9000    0.0000 C   0  0  0  0  0  0  0  0  0  0  0  0
    0.7145   -7.8375    0.0000 C   0  0  0  0  0  0  0  0  0  0  0  0
  1  2  1  0  0  0  0
  2  3  2  0  0  0  0
  3  4  1  0  0  0  0
  4  5  2  0  0  0  0
  5  6  1  0  0  0  0
  6  7  1  0  0  0  0
  7  8  1  0  0  0  0
  8  9  2  0  0  0  0
  8 10  1  0  0  0  0
 10 11  2  0  0  0  0
 11 12  1  0  0  0  0
 12 13  2  0  0  0  0
 13 14  1  0  0  0  0
 14 15  1  0  0  0  0
 15 16  1  0  0  0  0
 16 17  1  0  0  0  0
 17 18  1  0  0  0  0
 18 19  1  0  0  0  0
 14 19  1  0  0  0  0
 17 20  1  0  0  0  0
 20 21  2  0  0  0  0
 21 22  1  0  0  0  0
 22 23  2  0  0  0  0
 23 24  1  0  0  0  0
 24 25  2  0  0  0  0
 20 25  1  0  0  0  0
 13 26  1  0  0  0  0
 26 27  1  0  0  0  0
 26 28  2  0  0  0  0
 10 28  1  0  0  0  0
  6 29  2  0  0  0  0
  2 29  1  0  0  0  0
M  END
> <COMPOUND_ID>
MMV024406

$$$$

  Mrv0541 04191616472D          

 22 24  0  0  1  0            999 V2000
    4.2868    3.3000    0.0000 O   0  0  0  0  0  0  0  0  0  0  0  0
    4.2868    2.4750    0.0000 C   0  0  0  0  0  0  0  0  0  0  0  0
    3.5724    2.0625    0.0000 C   0  0  0  0  0  0  0  0  0  0  0  0
    3.5724    1.2375    0.0000 N   0  0  0  0  0  0  0  0  0  0  0  0
    2.8579    0.8250    0.0000 C   0  0  0  0  0  0  0  0  0  0  0  0
    2.8579   -0.0000    0.0000 C   0  0  0  0  0  0  0  0  0  0  0  0
    2.1434   -0.4125    0.0000 C   0  0  0  0  0  0  0  0  0  0  0  0
    1.4289   -0.0000    0.0000 C   0  0  0  0  0  0  0  0  0  0  0  0
    1.4289    0.8250    0.0000 C   0  0  0  0  0  0  0  0  0  0  0  0
    2.1434    1.2375    0.0000 C   0  0  0  0  0  0  0  0  0  0  0  0
    0.7145   -0.4125    0.0000 C   0  0  0  0  0  0  0  0  0  0  0  0
    0.0000    0.0000    0.0000 O   0  0  0  0  0  0  0  0  0  0  0  0
    0.7145   -1.2375    0.0000 C   0  0  0  0  0  0  0  0  0  0  0  0
    1.1270   -1.9520    0.0000 C   0  0  0  0  0  0  0  0  0  0  0  0
    0.3020   -1.9520    0.0000 C   0  0  1  0  0  0  0  0  0  0  0  0
   -0.4125   -2.3645    0.0000 C   0  0  0  0  0  0  0  0  0  0  0  0
   -0.4125   -3.1895    0.0000 C   0  0  0  0  0  0  0  0  0  0  0  0
   -1.1270   -3.6020    0.0000 C   0  0  0  0  0  0  0  0  0  0  0  0
   -1.8414   -3.1895    0.0000 C   0  0  0  0  0  0  0  0  0  0  0  0
   -2.5559   -3.6020    0.0000 Cl  0  0  0  0  0  0  0  0  0  0  0  0
   -1.8414   -2.3645    0.0000 C   0  0  0  0  0  0  0  0  0  0  0  0
   -1.1270   -1.9520    0.0000 C   0  0  0  0  0  0  0  0  0  0  0  0
  1  2  1  0  0  0  0
  2  3  1  0  0  0  0
  3  4  1  0  0  0  0
  4  5  1  0  0  0  0
  5  6  2  0  0  0  0
  6  7  1  0  0  0  0
  7  8  2  0  0  0  0
  8  9  1  0  0  0  0
  9 10  2  0  0  0  0
  5 10  1  0  0  0  0
  8 11  1  0  0  0  0
 11 12  2  0  0  0  0
 11 13  1  0  0  0  0
 13 14  1  0  0  0  0
 14 15  1  0  0  0  0
 13 15  1  0  0  0  0
 15 16  1  1  0  0  0
 16 17  2  0  0  0  0
 17 18  1  0  0  0  0
 18 19  2  0  0  0  0
 19 20  1  0  0  0  0
 19 21  1  0  0  0  0
 21 22  2  0  0  0  0
 16 22  1  0  0  0  0
M  END
> <COMPOUND_ID>
MMV676877

$$$$

  Mrv0541 04191616472D          

 28 31  0  0  0  0            999 V2000
    5.4221   -6.2418    0.0000 F   0  0  0  0  0  0  0  0  0  0  0  0
    4.6016   -6.3281    0.0000 C   0  0  0  0  0  0  0  0  0  0  0  0
    4.5154   -5.5076    0.0000 F   0  0  0  0  0  0  0  0  0  0  0  0
    4.6878   -7.1485    0.0000 F   0  0  0  0  0  0  0  0  0  0  0  0
    3.7811   -6.4143    0.0000 C   0  0  0  0  0  0  0  0  0  0  0  0
    3.4456   -7.1680    0.0000 C   0  0  0  0  0  0  0  0  0  0  0  0
    2.6251   -7.2542    0.0000 C   0  0  0  0  0  0  0  0  0  0  0  0
    2.1402   -6.5868    0.0000 C   0  0  0  0  0  0  0  0  0  0  0  0
    2.4757   -5.8331    0.0000 C   0  0  0  0  0  0  0  0  0  0  0  0
    3.2962   -5.7469    0.0000 C   0  0  0  0  0  0  0  0  0  0  0  0
    1.9908   -5.1657    0.0000 C   0  0  0  0  0  0  0  0  0  0  0  0
    1.1703   -5.2519    0.0000 O   0  0  0  0  0  0  0  0  0  0  0  0
    2.3264   -4.4120    0.0000 N   0  0  0  0  0  0  0  0  0  0  0  0
    1.8414   -3.7445    0.0000 C   0  0  0  0  0  0  0  0  0  0  0  0
    1.0164   -3.7445    0.0000 C   0  0  0  0  0  0  0  0  0  0  0  0
    0.7615   -2.9599    0.0000 C   0  0  0  0  0  0  0  0  0  0  0  0
    1.4289   -2.4750    0.0000 N   0  0  0  0  0  0  0  0  0  0  0  0
    2.0964   -2.9599    0.0000 C   0  0  0  0  0  0  0  0  0  0  0  0
    1.4289   -1.6500    0.0000 C   0  0  0  0  0  0  0  0  0  0  0  0
    0.7145   -1.2375    0.0000 C   0  0  0  0  0  0  0  0  0  0  0  0
    0.7145   -0.4125    0.0000 C   0  0  0  0  0  0  0  0  0  0  0  0
    1.4289    0.0000    0.0000 N   0  0  0  0  0  0  0  0  0  0  0  0
    2.1434   -0.4125    0.0000 C   0  0  0  0  0  0  0  0  0  0  0  0
    2.8579    0.0000    0.0000 C   0  0  0  0  0  0  0  0  0  0  0  0
    3.5724   -0.4125    0.0000 C   0  0  0  0  0  0  0  0  0  0  0  0
    3.5724   -1.2375    0.0000 C   0  0  0  0  0  0  0  0  0  0  0  0
    2.8579   -1.6500    0.0000 C   0  0  0  0  0  0  0  0  0  0  0  0
    2.1434   -1.2375    0.0000 C   0  0  0  0  0  0  0  0  0  0  0  0
  1  2  1  0  0  0  0
  2  3  1  0  0  0  0
  2  4  1  0  0  0  0
  2  5  1  0  0  0  0
  5  6  2  0  0  0  0
  6  7  1  0  0  0  0
  7  8  2  0  0  0  0
  8  9  1  0  0  0  0
  9 10  2  0  0  0  0
  5 10  1  0  0  0  0
  9 11  1  0  0  0  0
 11 12  2  0  0  0  0
 11 13  1  0  0  0  0
 13 14  1  0  0  0  0
 14 15  1  0  0  0  0
 15 16  1  0  0  0  0
 16 17  1  0  0  0  0
 17 18  1  0  0  0  0
 14 18  1  0  0  0  0
 17 19  1  0  0  0  0
 19 20  1  0  0  0  0
 20 21  2  0  0  0  0
 21 22  1  0  0  0  0
 22 23  2  0  0  0  0
 23 24  1  0  0  0  0
 24 25  2  0  0  0  0
 25 26  1  0  0  0  0
 26 27  2  0  0  0  0
 27 28  1  0  0  0  0
 19 28  2  0  0  0  0
 23 28  1  0  0  0  0
M  END
> <COMPOUND_ID>
MMV023388

$$$$

  Mrv0541 04191616472D          

 22 24  0  0  0  0            999 V2000
    0.0768   -2.3215    0.0000 C   0  0  0  0  0  0  0  0  0  0  0  0
    0.8838   -2.1500    0.0000 C   0  0  0  0  0  0  0  0  0  0  0  0
    1.1387   -1.3654    0.0000 N   0  0  0  0  0  0  0  0  0  0  0  0
    0.6538   -0.6979    0.0000 C   0  0  0  0  0  0  0  0  0  0  0  0
    1.1387   -0.0305    0.0000 N   0  0  0  0  0  0  0  0  0  0  0  0
    1.9233   -0.2854    0.0000 C   0  0  0  0  0  0  0  0  0  0  0  0
    2.6378    0.1271    0.0000 C   0  0  0  0  0  0  0  0  0  0  0  0
    2.6378    0.9521    0.0000 N   0  0  0  0  0  0  0  0  0  0  0  0
    3.3523    1.3646    0.0000 C   0  0  0  0  0  0  0  0  0  0  0  0
    3.3523    2.1896    0.0000 C   0  0  0  0  0  0  0  0  0  0  0  0
    4.0668    2.6021    0.0000 C   0  0  0  0  0  0  0  0  0  0  0  0
    4.0668    3.4271    0.0000 F   0  0  0  0  0  0  0  0  0  0  0  0
    4.7812    2.1896    0.0000 C   0  0  0  0  0  0  0  0  0  0  0  0
    4.7812    1.3646    0.0000 C   0  0  0  0  0  0  0  0  0  0  0  0
    5.4957    0.9521    0.0000 F   0  0  0  0  0  0  0  0  0  0  0  0
    4.0668    0.9521    0.0000 C   0  0  0  0  0  0  0  0  0  0  0  0
    3.3523   -0.2854    0.0000 N   0  0  0  0  0  0  0  0  0  0  0  0
    3.3523   -1.1104    0.0000 C   0  0  0  0  0  0  0  0  0  0  0  0
    2.6378   -1.5229    0.0000 N   0  0  0  0  0  0  0  0  0  0  0  0
    1.9233   -1.1104    0.0000 C   0  0  0  0  0  0  0  0  0  0  0  0
    4.0668   -1.5229    0.0000 C   0  0  0  0  0  0  0  0  0  0  0  0
    4.7812   -1.9354    0.0000 N   0  0  0  0  0  0  0  0  0  0  0  0
  1  2  1  0  0  0  0
  2  3  1  0  0  0  0
  3  4  1  0  0  0  0
  4  5  2  0  0  0  0
  5  6  1  0  0  0  0
  6  7  2  0  0  0  0
  7  8  1  0  0  0  0
  8  9  1  0  0  0  0
  9 10  2  0  0  0  0
 10 11  1  0  0  0  0
 11 12  1  0  0  0  0
 11 13  2  0  0  0  0
 13 14  1  0  0  0  0
 14 15  1  0  0  0  0
 14 16  2  0  0  0  0
  9 16  1  0  0  0  0
  7 17  1  0  0  0  0
 17 18  2  0  0  0  0
 18 19  1  0  0  0  0
 19 20  2  0  0  0  0
  3 20  1  0  0  0  0
  6 20  1  0  0  0  0
 18 21  1  0  0  0  0
 21 22  3  0  0  0  0
M  END
> <COMPOUND_ID>
MMV676881

$$$$

  Mrv0541 04191616472D          

 20 23  0  0  0  0            999 V2000
    4.0668    7.2979    0.0000 N   0  0  0  0  0  0  0  0  0  0  0  0
    4.7812    6.8854    0.0000 C   0  0  0  0  0  0  0  0  0  0  0  0
    5.4957    7.2979    0.0000 N   0  0  0  0  0  0  0  0  0  0  0  0
    6.2102    6.8854    0.0000 C   0  0  0  0  0  0  0  0  0  0  0  0
    6.2102    6.0604    0.0000 C   0  0  0  0  0  0  0  0  0  0  0  0
    5.4957    5.6479    0.0000 C   0  0  0  0  0  0  0  0  0  0  0  0
    5.4957    4.8229    0.0000 C   0  0  0  0  0  0  0  0  0  0  0  0
    4.7812    4.4104    0.0000 C   0  0  0  0  0  0  0  0  0  0  0  0
    4.0668    4.8229    0.0000 C   0  0  0  0  0  0  0  0  0  0  0  0
    4.0668    5.6479    0.0000 C   0  0  0  0  0  0  0  0  0  0  0  0
    4.7812    6.0604    0.0000 C   0  0  0  0  0  0  0  0  0  0  0  0
    3.3523    4.4104    0.0000 C   0  0  0  0  0  0  0  0  0  0  0  0
    3.3523    3.5854    0.0000 C   0  0  0  0  0  0  0  0  0  0  0  0
    2.6378    3.1729    0.0000 C   0  0  0  0  0  0  0  0  0  0  0  0
    1.9233    3.5854    0.0000 C   0  0  0  0  0  0  0  0  0  0  0  0
    1.1387    3.3305    0.0000 N   0  0  0  0  0  0  0  0  0  0  0  0
    0.6538    3.9979    0.0000 C   0  0  0  0  0  0  0  0  0  0  0  0
    1.1387    4.6654    0.0000 C   0  0  0  0  0  0  0  0  0  0  0  0
    1.9233    4.4104    0.0000 N   0  0  0  0  0  0  0  0  0  0  0  0
    2.6378    4.8229    0.0000 C   0  0  0  0  0  0  0  0  0  0  0  0
  1  2  1  0  0  0  0
  2  3  1  0  0  0  0
  3  4  2  0  0  0  0
  4  5  1  0  0  0  0
  5  6  2  0  0  0  0
  6  7  1  0  0  0  0
  7  8  2  0  0  0  0
  8  9  1  0  0  0  0
  9 10  2  0  0  0  0
 10 11  1  0  0  0  0
  2 11  2  0  0  0  0
  6 11  1  0  0  0  0
  9 12  1  0  0  0  0
 12 13  1  0  0  0  0
 13 14  2  0  0  0  0
 14 15  1  0  0  0  0
 15 16  2  0  0  0  0
 16 17  1  0  0  0  0
 17 18  2  0  0  0  0
 18 19  1  0  0  0  0
 15 19  1  0  0  0  0
 19 20  1  0  0  0  0
 12 20  2  0  0  0  0
M  END
> <COMPOUND_ID>
MMV023233

$$$$

  Mrv0541 04191616472D          

 25 27  0  0  0  0            999 V2000
   -0.1105   -0.4125    0.0000 C   0  0  0  0  0  0  0  0  0  0  0  0
    0.7145   -0.4125    0.0000 C   0  0  0  0  0  0  0  0  0  0  0  0
    1.5395   -0.4125    0.0000 C   0  0  0  0  0  0  0  0  0  0  0  0
    0.7145    0.4125    0.0000 C   0  0  0  0  0  0  0  0  0  0  0  0
    0.0000    0.8250    0.0000 N   0  0  0  0  0  0  0  0  0  0  0  0
    0.7145   -1.2375    0.0000 C   0  0  0  0  0  0  0  0  0  0  0  0
    1.3819   -1.7224    0.0000 N   0  0  0  0  0  0  0  0  0  0  0  0
    1.1270   -2.5070    0.0000 C   0  0  0  0  0  0  0  0  0  0  0  0
    1.6119   -3.1745    0.0000 C   0  0  0  0  0  0  0  0  0  0  0  0
    2.4324   -3.0882    0.0000 C   0  0  0  0  0  0  0  0  0  0  0  0
    2.9173   -3.7557    0.0000 C   0  0  0  0  0  0  0  0  0  0  0  0
    2.5817   -4.5094    0.0000 C   0  0  0  0  0  0  0  0  0  0  0  0
    3.0667   -5.1768    0.0000 Cl  0  0  0  0  0  0  0  0  0  0  0  0
    1.7613   -4.5956    0.0000 C   0  0  0  0  0  0  0  0  0  0  0  0
    1.4257   -5.3493    0.0000 O   0  0  0  0  0  0  0  0  0  0  0  0
    1.2763   -3.9282    0.0000 C   0  0  0  0  0  0  0  0  0  0  0  0
    0.3020   -2.5070    0.0000 C   0  0  0  0  0  0  0  0  0  0  0  0
    0.0470   -1.7224    0.0000 N   0  0  0  0  0  0  0  0  0  0  0  0
   -0.1830   -3.1745    0.0000 C   0  0  0  0  0  0  0  0  0  0  0  0
    0.1526   -3.9282    0.0000 C   0  0  0  0  0  0  0  0  0  0  0  0
   -0.3323   -4.5956    0.0000 C   0  0  0  0  0  0  0  0  0  0  0  0
   -1.1528   -4.5094    0.0000 N   0  0  0  0  0  0  0  0  0  0  0  0
   -1.4884   -3.7557    0.0000 C   0  0  0  0  0  0  0  0  0  0  0  0
   -2.3088   -3.6695    0.0000 N   0  0  0  0  0  0  0  0  0  0  0  0
   -1.0034   -3.0882    0.0000 N   0  0  0  0  0  0  0  0  0  0  0  0
  1  2  1  0  0  0  0
  2  3  1  0  0  0  0
  2  4  1  0  0  0  0
  4  5  1  0  0  0  0
  2  6  1  0  0  0  0
  6  7  2  0  0  0  0
  7  8  1  0  0  0  0
  8  9  1  0  0  0  0
  9 10  2  0  0  0  0
 10 11  1  0  0  0  0
 11 12  2  0  0  0  0
 12 13  1  0  0  0  0
 12 14  1  0  0  0  0
 14 15  1  0  0  0  0
 14 16  2  0  0  0  0
  9 16  1  0  0  0  0
  8 17  2  0  0  0  0
 17 18  1  0  0  0  0
  6 18  1  0  0  0  0
 17 19  1  0  0  0  0
 19 20  2  0  0  0  0
 20 21  1  0  0  0  0
 21 22  2  0  0  0  0
 22 23  1  0  0  0  0
 23 24  1  0  0  0  0
 23 25  2  0  0  0  0
 19 25  1  0  0  0  0
M  END
> <COMPOUND_ID>
MMV030734

$$$$

  Mrv0541 04191616472D          

 29 32  0  0  0  0            999 V2000
    0.6710   -5.1170    0.0000 C   0  0  0  0  0  0  0  0  0  0  0  0
    0.1190   -4.5039    0.0000 O   0  0  0  0  0  0  0  0  0  0  0  0
    0.3739   -3.7192    0.0000 C   0  0  0  0  0  0  0  0  0  0  0  0
   -0.1781   -3.1062    0.0000 C   0  0  0  0  0  0  0  0  0  0  0  0
    0.0768   -2.3215    0.0000 C   0  0  0  0  0  0  0  0  0  0  0  0
    0.8838   -2.1500    0.0000 C   0  0  0  0  0  0  0  0  0  0  0  0
    1.4358   -2.7631    0.0000 C   0  0  0  0  0  0  0  0  0  0  0  0
    1.1809   -3.5477    0.0000 N   0  0  0  0  0  0  0  0  0  0  0  0
    1.1387   -1.3654    0.0000 C   0  0  0  0  0  0  0  0  0  0  0  0
    0.6538   -0.6979    0.0000 C   0  0  0  0  0  0  0  0  0  0  0  0
    1.1387   -0.0305    0.0000 N   0  0  0  0  0  0  0  0  0  0  0  0
    1.9233   -0.2854    0.0000 C   0  0  0  0  0  0  0  0  0  0  0  0
    2.6378    0.1271    0.0000 C   0  0  0  0  0  0  0  0  0  0  0  0
    3.3523   -0.2854    0.0000 C   0  0  0  0  0  0  0  0  0  0  0  0
    3.3523   -1.1104    0.0000 C   0  0  0  0  0  0  0  0  0  0  0  0
    4.0668   -1.5229    0.0000 N   0  0  0  0  0  0  0  0  0  0  0  0
    4.7812   -1.1104    0.0000 C   0  0  0  0  0  0  0  0  0  0  0  0
    5.4957   -1.5229    0.0000 C   0  0  0  0  0  0  0  0  0  0  0  0
    6.2102   -1.1104    0.0000 C   0  0  0  0  0  0  0  0  0  0  0  0
    6.9246   -1.5229    0.0000 C   0  0  0  0  0  0  0  0  0  0  0  0
    6.9246   -2.3479    0.0000 C   0  0  0  0  0  0  0  0  0  0  0  0
    6.2102   -2.7604    0.0000 C   0  0  0  0  0  0  0  0  0  0  0  0
    5.4957   -2.3479    0.0000 C   0  0  0  0  0  0  0  0  0  0  0  0
    7.6391   -2.7604    0.0000 S   0  0  0  0  0  0  0  0  0  0  0  0
    8.3536   -3.1729    0.0000 O   0  0  0  0  0  0  0  0  0  0  0  0
    7.2266   -3.4749    0.0000 O   0  0  0  0  0  0  0  0  0  0  0  0
    8.0516   -2.0460    0.0000 N   0  0  0  0  0  0  0  0  0  0  0  0
    2.6378   -1.5229    0.0000 N   0  0  0  0  0  0  0  0  0  0  0  0
    1.9233   -1.1104    0.0000 N   0  0  0  0  0  0  0  0  0  0  0  0
  1  2  1  0  0  0  0
  2  3  1  0  0  0  0
  3  4  2  0  0  0  0
  4  5  1  0  0  0  0
  5  6  2  0  0  0  0
  6  7  1  0  0  0  0
  7  8  2  0  0  0  0
  3  8  1  0  0  0  0
  6  9  1  0  0  0  0
  9 10  2  0  0  0  0
 10 11  1  0  0  0  0
 11 12  2  0  0  0  0
 12 13  1  0  0  0  0
 13 14  2  0  0  0  0
 14 15  1  0  0  0  0
 15 16  1  0  0  0  0
 16 17  1  0  0  0  0
 17 18  1  0  0  0  0
 18 19  2  0  0  0  0
 19 20  1  0  0  0  0
 20 21  2  0  0  0  0
 21 22  1  0  0  0  0
 22 23  2  0  0  0  0
 18 23  1  0  0  0  0
 21 24  1  0  0  0  0
 24 25  2  0  0  0  0
 24 26  2  0  0  0  0
 24 27  1  0  0  0  0
 15 28  2  0  0  0  0
 28 29  1  0  0  0  0
  9 29  1  0  0  0  0
 12 29  1  0  0  0  0
M  END
> <COMPOUND_ID>
MMV010545

$$$$

  Mrv0541 04191616472D          

 36 41  0  0  0  0            999 V2000
   -5.0013   -4.5375    0.0000 C   0  0  0  0  0  0  0  0  0  0  0  0
   -4.2868   -4.1250    0.0000 N   0  0  0  0  0  0  0  0  0  0  0  0
   -4.2868   -3.3000    0.0000 C   0  0  0  0  0  0  0  0  0  0  0  0
   -3.5724   -2.8875    0.0000 C   0  0  0  0  0  0  0  0  0  0  0  0
   -2.8579   -3.3000    0.0000 N   0  0  0  0  0  0  0  0  0  0  0  0
   -2.8579   -4.1250    0.0000 C   0  0  0  0  0  0  0  0  0  0  0  0
   -3.5724   -4.5375    0.0000 C   0  0  0  0  0  0  0  0  0  0  0  0
   -2.1434   -2.8875    0.0000 S   0  0  0  0  0  0  0  0  0  0  0  0
   -1.7309   -3.6020    0.0000 O   0  0  0  0  0  0  0  0  0  0  0  0
   -2.5559   -2.1730    0.0000 O   0  0  0  0  0  0  0  0  0  0  0  0
   -1.4289   -2.4750    0.0000 C   0  0  0  0  0  0  0  0  0  0  0  0
   -1.4289   -1.6500    0.0000 C   0  0  0  0  0  0  0  0  0  0  0  0
   -0.7145   -1.2375    0.0000 C   0  0  0  0  0  0  0  0  0  0  0  0
    0.0000   -1.6500    0.0000 C   0  0  0  0  0  0  0  0  0  0  0  0
    0.0000   -2.4750    0.0000 C   0  0  0  0  0  0  0  0  0  0  0  0
   -0.7145   -2.8875    0.0000 C   0  0  0  0  0  0  0  0  0  0  0  0
    0.7145   -1.2375    0.0000 C   0  0  0  0  0  0  0  0  0  0  0  0
    0.7145   -0.4125    0.0000 C   0  0  0  0  0  0  0  0  0  0  0  0
    1.4289    0.0000    0.0000 C   0  0  0  0  0  0  0  0  0  0  0  0
    2.1434   -0.4125    0.0000 C   0  0  0  0  0  0  0  0  0  0  0  0
    2.8579    0.0000    0.0000 C   0  0  0  0  0  0  0  0  0  0  0  0
    2.8579    0.8250    0.0000 N   0  0  0  0  0  0  0  0  0  0  0  0
    3.5724    1.2375    0.0000 C   0  0  0  0  0  0  0  0  0  0  0  0
    3.5724    2.0625    0.0000 C   0  0  0  0  0  0  0  0  0  0  0  0
    4.2868    2.4750    0.0000 C   0  0  0  0  0  0  0  0  0  0  0  0
    5.0013    2.0625    0.0000 C   0  0  0  0  0  0  0  0  0  0  0  0
    5.7859    2.3174    0.0000 N   0  0  0  0  0  0  0  0  0  0  0  0
    6.2708    1.6500    0.0000 N   0  0  0  0  0  0  0  0  0  0  0  0
    5.7859    0.9826    0.0000 N   0  0  0  0  0  0  0  0  0  0  0  0
    5.0013    1.2375    0.0000 C   0  0  0  0  0  0  0  0  0  0  0  0
    4.2868    0.8250    0.0000 C   0  0  0  0  0  0  0  0  0  0  0  0
    3.5724   -0.4125    0.0000 C   0  0  0  0  0  0  0  0  0  0  0  0
    3.5724   -1.2375    0.0000 C   0  0  0  0  0  0  0  0  0  0  0  0
    2.8579   -1.6500    0.0000 N   0  0  0  0  0  0  0  0  0  0  0  0
    2.1434   -1.2375    0.0000 C   0  0  0  0  0  0  0  0  0  0  0  0
    1.4289   -1.6500    0.0000 C   0  0  0  0  0  0  0  0  0  0  0  0
  1  2  1  0  0  0  0
  2  3  1  0  0  0  0
  3  4  1  0  0  0  0
  4  5  1  0  0  0  0
  5  6  1  0  0  0  0
  6  7  1  0  0  0  0
  2  7  1  0  0  0  0
  5  8  1  0  0  0  0
  8  9  2  0  0  0  0
  8 10  2  0  0  0  0
  8 11  1  0  0  0  0
 11 12  2  0  0  0  0
 12 13  1  0  0  0  0
 13 14  2  0  0  0  0
 14 15  1  0  0  0  0
 15 16  2  0  0  0  0
 11 16  1  0  0  0  0
 14 17  1  0  0  0  0
 17 18  2  0  0  0  0
 18 19  1  0  0  0  0
 19 20  2  0  0  0  0
 20 21  1  0  0  0  0
 21 22  1  0  0  0  0
 22 23  1  0  0  0  0
 23 24  2  0  0  0  0
 24 25  1  0  0  0  0
 25 26  2  0  0  0  0
 26 27  1  0  0  0  0
 27 28  2  0  0  0  0
 28 29  1  0  0  0  0
 29 30  1  0  0  0  0
 26 30  1  0  0  0  0
 30 31  2  0  0  0  0
 23 31  1  0  0  0  0
 21 32  2  0  0  0  0
 32 33  1  0  0  0  0
 33 34  2  0  0  0  0
 34 35  1  0  0  0  0
 20 35  1  0  0  0  0
 35 36  2  0  0  0  0
 17 36  1  0  0  0  0
M  END
> <COMPOUND_ID>
MMV687246

$$$$

  Mrv0541 04191616472D          

 28 30  0  0  0  0            999 V2000
   -0.7145   -2.8875    0.0000 C   0  0  0  0  0  0  0  0  0  0  0  0
   -0.7145   -3.7125    0.0000 C   0  0  0  0  0  0  0  0  0  0  0  0
   -1.4289   -4.1250    0.0000 C   0  0  0  0  0  0  0  0  0  0  0  0
    0.0000   -4.1250    0.0000 C   0  0  0  0  0  0  0  0  0  0  0  0
    0.0000   -4.9500    0.0000 N   0  0  0  0  0  0  0  0  0  0  0  0
    0.7145   -5.3625    0.0000 C   0  0  0  0  0  0  0  0  0  0  0  0
    0.7145   -6.1875    0.0000 C   0  0  0  0  0  0  0  0  0  0  0  0
    0.0000   -6.6000    0.0000 C   0  0  0  0  0  0  0  0  0  0  0  0
   -0.7145   -6.1875    0.0000 C   0  0  0  0  0  0  0  0  0  0  0  0
   -0.7145   -5.3625    0.0000 C   0  0  0  0  0  0  0  0  0  0  0  0
    0.0000   -7.4250    0.0000 N   0  0  0  0  0  0  0  0  0  0  0  0
    0.7145   -7.8375    0.0000 C   0  0  0  0  0  0  0  0  0  0  0  0
   -0.7145   -7.8375    0.0000 C   0  0  0  0  0  0  0  0  0  0  0  0
   -0.7145   -8.6625    0.0000 C   0  0  0  0  0  0  0  0  0  0  0  0
   -1.4289   -9.0750    0.0000 C   0  0  0  0  0  0  0  0  0  0  0  0
   -1.4289   -9.9000    0.0000 N   0  0  0  0  0  0  0  0  0  0  0  0
   -0.7145  -10.3125    0.0000 C   0  0  0  0  0  0  0  0  0  0  0  0
   -0.0000   -9.9000    0.0000 O   0  0  0  0  0  0  0  0  0  0  0  0
   -0.7145  -11.1375    0.0000 C   0  0  0  0  0  0  0  0  0  0  0  0
   -0.0000  -11.5500    0.0000 C   0  0  0  0  0  0  0  0  0  0  0  0
   -0.0000  -12.3750    0.0000 C   0  0  0  0  0  0  0  0  0  0  0  0
   -0.7145  -12.7875    0.0000 C   0  0  0  0  0  0  0  0  0  0  0  0
   -1.4289  -12.3750    0.0000 C   0  0  0  0  0  0  0  0  0  0  0  0
   -2.1434  -12.7875    0.0000 C   0  0  0  0  0  0  0  0  0  0  0  0
   -1.4289  -11.5500    0.0000 C   0  0  0  0  0  0  0  0  0  0  0  0
   -2.1434   -8.6625    0.0000 C   0  0  0  0  0  0  0  0  0  0  0  0
   -2.1434   -7.8375    0.0000 C   0  0  0  0  0  0  0  0  0  0  0  0
   -1.4289   -7.4250    0.0000 N   0  0  0  0  0  0  0  0  0  0  0  0
  1  2  1  0  0  0  0
  2  3  1  0  0  0  0
  2  4  1  0  0  0  0
  4  5  1  0  0  0  0
  5  6  1  0  0  0  0
  6  7  1  0  0  0  0
  7  8  1  0  0  0  0
  8  9  1  0  0  0  0
  9 10  1  0  0  0  0
  5 10  1  0  0  0  0
  8 11  1  0  0  0  0
 11 12  1  0  0  0  0
 11 13  1  0  0  0  0
 13 14  2  0  0  0  0
 14 15  1  0  0  0  0
 15 16  1  0  0  0  0
 16 17  1  0  0  0  0
 17 18  2  0  0  0  0
 17 19  1  0  0  0  0
 19 20  2  0  0  0  0
 20 21  1  0  0  0  0
 21 22  2  0  0  0  0
 22 23  1  0  0  0  0
 23 24  1  0  0  0  0
 23 25  2  0  0  0  0
 19 25  1  0  0  0  0
 15 26  2  0  0  0  0
 26 27  1  0  0  0  0
 27 28  2  0  0  0  0
 13 28  1  0  0  0  0
M  END
> <COMPOUND_ID>
MMV024829

$$$$

  Mrv0541 04191616472D          

 21 23  0  0  0  0            999 V2000
    3.4656   -2.9491    0.0000 C   0  0  0  0  0  0  0  0  0  0  0  0
    3.4656   -3.7741    0.0000 C   0  0  0  0  0  0  0  0  0  0  0  0
    4.1331   -4.2590    0.0000 N   0  0  0  0  0  0  0  0  0  0  0  0
    3.8781   -5.0437    0.0000 C   0  0  0  0  0  0  0  0  0  0  0  0
    3.0531   -5.0437    0.0000 N   0  0  0  0  0  0  0  0  0  0  0  0
    2.7982   -4.2590    0.0000 C   0  0  0  0  0  0  0  0  0  0  0  0
    2.0136   -4.0041    0.0000 C   0  0  0  0  0  0  0  0  0  0  0  0
    4.3631   -5.7111    0.0000 C   0  0  0  0  0  0  0  0  0  0  0  0
    5.1836   -5.6249    0.0000 C   0  0  0  0  0  0  0  0  0  0  0  0
    5.6685   -6.2923    0.0000 C   0  0  0  0  0  0  0  0  0  0  0  0
    5.3329   -7.0460    0.0000 C   0  0  0  0  0  0  0  0  0  0  0  0
    4.5124   -7.1322    0.0000 C   0  0  0  0  0  0  0  0  0  0  0  0
    4.1769   -7.8859    0.0000 N   0  0  0  0  0  0  0  0  0  0  0  0
    4.6618   -8.5533    0.0000 C   0  0  0  0  0  0  0  0  0  0  0  0
    4.3262   -9.3070    0.0000 C   0  0  0  0  0  0  0  0  0  0  0  0
    4.8112   -9.9744    0.0000 C   0  0  0  0  0  0  0  0  0  0  0  0
    4.4756  -10.7281    0.0000 C   0  0  0  0  0  0  0  0  0  0  0  0
    3.6551  -10.8143    0.0000 C   0  0  0  0  0  0  0  0  0  0  0  0
    3.1702  -10.1469    0.0000 C   0  0  0  0  0  0  0  0  0  0  0  0
    3.5058   -9.3932    0.0000 C   0  0  0  0  0  0  0  0  0  0  0  0
    4.0275   -6.4648    0.0000 C   0  0  0  0  0  0  0  0  0  0  0  0
  1  2  1  0  0  0  0
  2  3  1  0  0  0  0
  3  4  2  0  0  0  0
  4  5  1  0  0  0  0
  5  6  1  0  0  0  0
  2  6  2  0  0  0  0
  6  7  1  0  0  0  0
  4  8  1  0  0  0  0
  8  9  2  0  0  0  0
  9 10  1  0  0  0  0
 10 11  2  0  0  0  0
 11 12  1  0  0  0  0
 12 13  1  0  0  0  0
 13 14  1  0  0  0  0
 14 15  1  0  0  0  0
 15 16  2  0  0  0  0
 16 17  1  0  0  0  0
 17 18  2  0  0  0  0
 18 19  1  0  0  0  0
 19 20  2  0  0  0  0
 15 20  1  0  0  0  0
 12 21  2  0  0  0  0
  8 21  1  0  0  0  0
M  END
> <COMPOUND_ID>
MMV023227

$$$$

  Mrv0541 04191616472D          

 31 35  0  0  0  0            999 V2000
   -0.7438    2.4131    0.0000 O   0  0  0  0  0  0  0  0  0  0  0  0
   -1.2288    1.7457    0.0000 C   0  0  0  0  0  0  0  0  0  0  0  0
   -2.0492    1.8319    0.0000 N   0  0  0  0  0  0  0  0  0  0  0  0
   -2.3848    2.5856    0.0000 C   0  0  0  0  0  0  0  0  0  0  0  0
   -3.2053    2.6718    0.0000 C   0  0  0  0  0  0  0  0  0  0  0  0
   -3.5408    3.4255    0.0000 C   0  0  0  0  0  0  0  0  0  0  0  0
   -3.0559    4.0929    0.0000 C   0  0  0  0  0  0  0  0  0  0  0  0
   -2.2354    4.0067    0.0000 C   0  0  0  0  0  0  0  0  0  0  0  0
   -1.8999    3.2530    0.0000 C   0  0  0  0  0  0  0  0  0  0  0  0
   -0.8932    0.9920    0.0000 C   0  0  0  0  0  0  0  0  0  0  0  0
   -1.3057    0.2775    0.0000 C   0  0  0  0  0  0  0  0  0  0  0  0
   -0.7537   -0.3356    0.0000 C   0  0  0  0  0  0  0  0  0  0  0  0
    0.0000    0.0000    0.0000 C   0  0  0  0  0  0  0  0  0  0  0  0
   -0.0862    0.8205    0.0000 S   0  0  0  0  0  0  0  0  0  0  0  0
    0.7145   -0.4125    0.0000 C   0  0  0  0  0  0  0  0  0  0  0  0
    1.4289    0.0000    0.0000 C   0  0  0  0  0  0  0  0  0  0  0  0
    2.1434   -0.4125    0.0000 C   0  0  0  0  0  0  0  0  0  0  0  0
    2.8579    0.0000    0.0000 C   0  0  0  0  0  0  0  0  0  0  0  0
    3.5724   -0.4125    0.0000 C   0  0  0  0  0  0  0  0  0  0  0  0
    3.5724   -1.2375    0.0000 N   0  0  0  0  0  0  0  0  0  0  0  0
    2.8579   -1.6500    0.0000 C   0  0  0  0  0  0  0  0  0  0  0  0
    2.1434   -1.2375    0.0000 C   0  0  0  0  0  0  0  0  0  0  0  0
    1.4289   -1.6500    0.0000 C   0  0  0  0  0  0  0  0  0  0  0  0
    0.7145   -1.2375    0.0000 C   0  0  0  0  0  0  0  0  0  0  0  0
    0.0000   -1.6500    0.0000 O   0  0  0  0  0  0  0  0  0  0  0  0
    0.0000   -2.4750    0.0000 C   0  0  0  0  0  0  0  0  0  0  0  0
    0.7145   -2.8875    0.0000 C   0  0  0  0  0  0  0  0  0  0  0  0
    0.7145   -3.7125    0.0000 C   0  0  0  0  0  0  0  0  0  0  0  0
    0.0000   -4.1250    0.0000 N   0  0  0  0  0  0  0  0  0  0  0  0
   -0.7145   -3.7125    0.0000 C   0  0  0  0  0  0  0  0  0  0  0  0
   -0.7145   -2.8875    0.0000 C   0  0  0  0  0  0  0  0  0  0  0  0
  1  2  2  0  0  0  0
  2  3  1  0  0  0  0
  3  4  1  0  0  0  0
  4  5  2  0  0  0  0
  5  6  1  0  0  0  0
  6  7  2  0  0  0  0
  7  8  1  0  0  0  0
  8  9  2  0  0  0  0
  4  9  1  0  0  0  0
  2 10  1  0  0  0  0
 10 11  2  0  0  0  0
 11 12  1  0  0  0  0
 12 13  2  0  0  0  0
 13 14  1  0  0  0  0
 10 14  1  0  0  0  0
 13 15  1  0  0  0  0
 15 16  1  0  0  0  0
 16 17  2  0  0  0  0
 17 18  1  0  0  0  0
 18 19  2  0  0  0  0
 19 20  1  0  0  0  0
 20 21  2  0  0  0  0
 21 22  1  0  0  0  0
 17 22  1  0  0  0  0
 22 23  2  0  0  0  0
 23 24  1  0  0  0  0
 15 24  2  0  0  0  0
 24 25  1  0  0  0  0
 25 26  1  0  0  0  0
 26 27  1  0  0  0  0
 27 28  1  0  0  0  0
 28 29  1  0  0  0  0
 29 30  1  0  0  0  0
 30 31  1  0  0  0  0
 26 31  1  0  0  0  0
M  END
> <COMPOUND_ID>
MMV024035

$$$$

  Mrv0541 04191616472D          

 28 30  0  0  0  0            999 V2000
    8.7277    2.6356    0.0000 C   0  0  0  0  0  0  0  0  0  0  0  0
    8.2133    1.9906    0.0000 O   0  0  0  0  0  0  0  0  0  0  0  0
    7.3976    2.1136    0.0000 C   0  0  0  0  0  0  0  0  0  0  0  0
    6.8832    1.4686    0.0000 C   0  0  0  0  0  0  0  0  0  0  0  0
    6.0674    1.5915    0.0000 C   0  0  0  0  0  0  0  0  0  0  0  0
    5.7660    2.3595    0.0000 C   0  0  0  0  0  0  0  0  0  0  0  0
    4.9502    2.4825    0.0000 C   0  0  0  0  0  0  0  0  0  0  0  0
    4.4358    1.8374    0.0000 N   0  0  0  0  0  0  0  0  0  0  0  0
    4.7938    1.0941    0.0000 C   0  0  0  0  0  0  0  0  0  0  0  0
    4.4358    0.3508    0.0000 C   0  0  0  0  0  0  0  0  0  0  0  0
    3.6315    0.1673    0.0000 O   0  0  0  0  0  0  0  0  0  0  0  0
    2.9865    0.6816    0.0000 C   0  0  0  0  0  0  0  0  0  0  0  0
    2.2720    0.2691    0.0000 C   0  0  0  0  0  0  0  0  0  0  0  0
    1.5575    0.6816    0.0000 C   0  0  0  0  0  0  0  0  0  0  0  0
    1.5575    1.5066    0.0000 C   0  0  0  0  0  0  0  0  0  0  0  0
    2.2720    1.9191    0.0000 C   0  0  0  0  0  0  0  0  0  0  0  0
    2.9865    1.5066    0.0000 C   0  0  0  0  0  0  0  0  0  0  0  0
    3.6315    2.0210    0.0000 C   0  0  0  0  0  0  0  0  0  0  0  0
    0.8431    1.9191    0.0000 C   0  0  0  0  0  0  0  0  0  0  0  0
    1.2556    2.6336    0.0000 C   0  0  0  0  0  0  0  0  0  0  0  0
    0.4306    1.2047    0.0000 O   0  0  0  0  0  0  0  0  0  0  0  0
    0.1286    2.3316    0.0000 C   0  0  0  0  0  0  0  0  0  0  0  0
    0.1286    3.1566    0.0000 N   0  0  0  0  0  0  0  0  0  0  0  0
   -0.5859    3.5691    0.0000 C   0  0  0  0  0  0  0  0  0  0  0  0
    0.8431    3.5691    0.0000 C   0  0  0  0  0  0  0  0  0  0  0  0
    6.2804    3.0045    0.0000 C   0  0  0  0  0  0  0  0  0  0  0  0
    7.0961    2.8815    0.0000 C   0  0  0  0  0  0  0  0  0  0  0  0
    7.6105    3.5266    0.0000 C   0  0  0  0  0  0  0  0  0  0  0  0
  1  2  1  0  0  0  0
  2  3  1  0  0  0  0
  3  4  2  0  0  0  0
  4  5  1  0  0  0  0
  5  6  2  0  0  0  0
  6  7  1  0  0  0  0
  7  8  1  0  0  0  0
  8  9  1  0  0  0  0
  9 10  1  0  0  0  0
 10 11  1  0  0  0  0
 11 12  1  0  0  0  0
 12 13  2  0  0  0  0
 13 14  1  0  0  0  0
 14 15  2  0  0  0  0
 15 16  1  0  0  0  0
 16 17  2  0  0  0  0
 12 17  1  0  0  0  0
 17 18  1  0  0  0  0
  8 18  1  0  0  0  0
 15 19  1  0  0  0  0
 19 20  1  0  0  0  0
 19 21  1  0  0  0  0
 19 22  1  0  0  0  0
 22 23  1  0  0  0  0
 23 24  1  0  0  0  0
 23 25  1  0  0  0  0
  6 26  1  0  0  0  0
 26 27  2  0  0  0  0
  3 27  1  0  0  0  0
 27 28  1  0  0  0  0
M  END
> <COMPOUND_ID>
MMV008439

$$$$

  Mrv0541 04191616472D          

 22 25  0  0  0  0            999 V2000
    4.6626    1.9303    0.0000 C   0  0  0  0  0  0  0  0  0  0  0  0
    4.7804    1.1137    0.0000 C   0  0  0  0  0  0  0  0  0  0  0  0
    5.5641    1.3716    0.0000 C   0  0  0  0  0  0  0  0  0  0  0  0
    3.9558    1.1395    0.0000 C   0  0  0  0  0  0  0  0  0  0  0  0
    3.5212    0.4383    0.0000 C   0  0  0  0  0  0  0  0  0  0  0  0
    3.9112   -0.2887    0.0000 C   0  0  0  0  0  0  0  0  0  0  0  0
    4.7358   -0.3145    0.0000 C   0  0  0  0  0  0  0  0  0  0  0  0
    5.1704    0.3867    0.0000 O   0  0  0  0  0  0  0  0  0  0  0  0
    3.4766   -0.9900    0.0000 C   0  0  0  0  0  0  0  0  0  0  0  0
    2.6520   -0.9642    0.0000 N   0  0  0  0  0  0  0  0  0  0  0  0
    2.2620   -0.2372    0.0000 C   0  0  0  0  0  0  0  0  0  0  0  0
    1.4608   -0.0406    0.0000 S   0  0  0  0  0  0  0  0  0  0  0  0
    1.4002    0.7822    0.0000 N   0  0  0  0  0  0  0  0  0  0  0  0
    2.1640    1.0941    0.0000 C   0  0  0  0  0  0  0  0  0  0  0  0
    2.3606    1.8953    0.0000 Br  0  0  0  0  0  0  0  0  0  0  0  0
    2.6966    0.4640    0.0000 C   0  0  0  0  0  0  0  0  0  0  0  0
    3.8666   -1.7170    0.0000 N   0  0  0  0  0  0  0  0  0  0  0  0
    4.6912   -1.7427    0.0000 C   0  0  0  0  0  0  0  0  0  0  0  0
    5.0811   -2.4698    0.0000 C   0  0  0  0  0  0  0  0  0  0  0  0
    4.6465   -3.1710    0.0000 O   0  0  0  0  0  0  0  0  0  0  0  0
    3.8219   -3.1452    0.0000 C   0  0  0  0  0  0  0  0  0  0  0  0
    3.4319   -2.4182    0.0000 C   0  0  0  0  0  0  0  0  0  0  0  0
  1  2  1  0  0  0  0
  2  3  1  0  0  0  0
  2  4  1  0  0  0  0
  4  5  1  0  0  0  0
  5  6  1  0  0  0  0
  6  7  1  0  0  0  0
  7  8  1  0  0  0  0
  2  8  1  0  0  0  0
  6  9  2  0  0  0  0
  9 10  1  0  0  0  0
 10 11  2  0  0  0  0
 11 12  1  0  0  0  0
 12 13  1  0  0  0  0
 13 14  2  0  0  0  0
 14 15  1  0  0  0  0
 14 16  1  0  0  0  0
  5 16  2  0  0  0  0
 11 16  1  0  0  0  0
  9 17  1  0  0  0  0
 17 18  1  0  0  0  0
 18 19  1  0  0  0  0
 19 20  1  0  0  0  0
 20 21  1  0  0  0  0
 21 22  1  0  0  0  0
 17 22  1  0  0  0  0
M  END
> <COMPOUND_ID>
MMV687794

$$$$

  Mrv0541 04191616472D          

 24 25  0  0  0  0            999 V2000
    1.4289   -5.7750    0.0000 C   0  0  0  0  0  0  0  0  0  0  0  0
    0.7145   -5.3625    0.0000 C   0  0  0  0  0  0  0  0  0  0  0  0
    0.7145   -4.5375    0.0000 C   0  0  0  0  0  0  0  0  0  0  0  0
    0.0000   -4.1250    0.0000 C   0  0  0  0  0  0  0  0  0  0  0  0
    0.0000   -3.3000    0.0000 C   0  0  0  0  0  0  0  0  0  0  0  0
    0.7145   -2.8875    0.0000 C   0  0  0  0  0  0  0  0  0  0  0  0
    1.4289   -3.3000    0.0000 C   0  0  0  0  0  0  0  0  0  0  0  0
    1.4289   -4.1250    0.0000 C   0  0  0  0  0  0  0  0  0  0  0  0
    0.7145   -2.0625    0.0000 C   0  0  0  0  0  0  0  0  0  0  0  0
    0.0000   -1.6500    0.0000 N   0  0  0  0  0  0  0  0  0  0  0  0
    0.0000   -0.8250    0.0000 C   0  0  0  0  0  0  0  0  0  0  0  0
   -0.7145   -0.4125    0.0000 C   0  0  0  0  0  0  0  0  0  0  0  0
   -1.4289   -0.8250    0.0000 N   0  0  0  0  0  0  0  0  0  0  0  0
   -2.1434   -0.4125    0.0000 C   0  0  0  0  0  0  0  0  0  0  0  0
   -2.8579   -0.8250    0.0000 N   0  0  0  0  0  0  0  0  0  0  0  0
   -2.1434    0.4125    0.0000 N   0  0  0  0  0  0  0  0  0  0  0  0
   -1.4289    0.8250    0.0000 C   0  0  0  0  0  0  0  0  0  0  0  0
   -0.7145    0.4125    0.0000 N   0  0  0  0  0  0  0  0  0  0  0  0
   -1.4289    1.6500    0.0000 N   0  0  0  0  0  0  0  0  0  0  0  0
   -2.1434    2.0625    0.0000 C   0  0  0  0  0  0  0  0  0  0  0  0
   -0.7145    2.0625    0.0000 C   0  0  0  0  0  0  0  0  0  0  0  0
    1.4289   -1.6500    0.0000 C   0  0  0  0  0  0  0  0  0  0  0  0
    1.4289   -0.8250    0.0000 C   0  0  0  0  0  0  0  0  0  0  0  0
    2.1434   -2.0625    0.0000 C   0  0  0  0  0  0  0  0  0  0  0  0
  1  2  1  0  0  0  0
  2  3  1  0  0  0  0
  3  4  2  0  0  0  0
  4  5  1  0  0  0  0
  5  6  2  0  0  0  0
  6  7  1  0  0  0  0
  7  8  2  0  0  0  0
  3  8  1  0  0  0  0
  6  9  1  0  0  0  0
  9 10  1  0  0  0  0
 10 11  1  0  0  0  0
 11 12  1  0  0  0  0
 12 13  2  0  0  0  0
 13 14  1  0  0  0  0
 14 15  1  0  0  0  0
 14 16  2  0  0  0  0
 16 17  1  0  0  0  0
 17 18  2  0  0  0  0
 12 18  1  0  0  0  0
 17 19  1  0  0  0  0
 19 20  1  0  0  0  0
 19 21  1  0  0  0  0
  9 22  1  0  0  0  0
 22 23  1  0  0  0  0
 22 24  1  0  0  0  0
M  END
> <COMPOUND_ID>
MMV1019989

$$$$

  Mrv0541 04191616472D          

 21 23  0  0  0  0            999 V2000
    0.6078    1.1759    0.0000 C   0  0  0  0  0  0  0  0  0  0  0  0
    1.3222    0.7634    0.0000 C   0  0  0  0  0  0  0  0  0  0  0  0
    2.0367    1.1759    0.0000 C   0  0  0  0  0  0  0  0  0  0  0  0
    2.7512    0.7634    0.0000 C   0  0  0  0  0  0  0  0  0  0  0  0
    3.4656    1.1759    0.0000 C   0  0  0  0  0  0  0  0  0  0  0  0
    2.7512   -0.0616    0.0000 N   0  0  0  0  0  0  0  0  0  0  0  0
    2.0367   -0.4741    0.0000 C   0  0  0  0  0  0  0  0  0  0  0  0
    1.3222   -0.0616    0.0000 N   0  0  0  0  0  0  0  0  0  0  0  0
    2.0367   -1.2991    0.0000 N   0  0  0  0  0  0  0  0  0  0  0  0
    1.3693   -1.7840    0.0000 N   0  0  0  0  0  0  0  0  0  0  0  0
    1.6242   -2.5687    0.0000 C   0  0  0  0  0  0  0  0  0  0  0  0
    1.1393   -3.2361    0.0000 C   0  0  0  0  0  0  0  0  0  0  0  0
    2.4492   -2.5687    0.0000 C   0  0  0  0  0  0  0  0  0  0  0  0
    2.7041   -1.7840    0.0000 C   0  0  0  0  0  0  0  0  0  0  0  0
    3.4888   -1.5291    0.0000 N   0  0  0  0  0  0  0  0  0  0  0  0
    4.1019   -2.0811    0.0000 C   0  0  0  0  0  0  0  0  0  0  0  0
    4.8865   -1.8262    0.0000 C   0  0  0  0  0  0  0  0  0  0  0  0
    5.4996   -2.3782    0.0000 C   0  0  0  0  0  0  0  0  0  0  0  0
    5.3281   -3.1852    0.0000 C   0  0  0  0  0  0  0  0  0  0  0  0
    4.5434   -3.4401    0.0000 C   0  0  0  0  0  0  0  0  0  0  0  0
    3.9303   -2.8881    0.0000 C   0  0  0  0  0  0  0  0  0  0  0  0
  1  2  1  0  0  0  0
  2  3  2  0  0  0  0
  3  4  1  0  0  0  0
  4  5  1  0  0  0  0
  4  6  2  0  0  0  0
  6  7  1  0  0  0  0
  7  8  2  0  0  0  0
  2  8  1  0  0  0  0
  7  9  1  0  0  0  0
  9 10  1  0  0  0  0
 10 11  2  0  0  0  0
 11 12  1  0  0  0  0
 11 13  1  0  0  0  0
 13 14  2  0  0  0  0
  9 14  1  0  0  0  0
 14 15  1  0  0  0  0
 15 16  1  0  0  0  0
 16 17  2  0  0  0  0
 17 18  1  0  0  0  0
 18 19  2  0  0  0  0
 19 20  1  0  0  0  0
 20 21  2  0  0  0  0
 16 21  1  0  0  0  0
M  END
> <COMPOUND_ID>
MMV062221

$$$$

  Mrv0541 04191616472D          

 23 25  0  0  0  0            999 V2000
    4.8946   -1.2991    0.0000 C   0  0  0  0  0  0  0  0  0  0  0  0
    4.1801   -1.7116    0.0000 C   0  0  0  0  0  0  0  0  0  0  0  0
    4.1801   -2.5366    0.0000 C   0  0  0  0  0  0  0  0  0  0  0  0
    3.4656   -1.2991    0.0000 N   0  0  0  0  0  0  0  0  0  0  0  0
    3.4656   -0.4741    0.0000 C   0  0  0  0  0  0  0  0  0  0  0  0
    4.1801   -0.0616    0.0000 C   0  0  0  0  0  0  0  0  0  0  0  0
    4.1801    0.7634    0.0000 C   0  0  0  0  0  0  0  0  0  0  0  0
    4.8946    1.1759    0.0000 C   0  0  0  0  0  0  0  0  0  0  0  0
    5.6091    0.7634    0.0000 C   0  0  0  0  0  0  0  0  0  0  0  0
    5.6091   -0.0616    0.0000 C   0  0  0  0  0  0  0  0  0  0  0  0
    4.8946   -0.4741    0.0000 N   0  0  0  0  0  0  0  0  0  0  0  0
    2.7512   -1.7116    0.0000 C   0  0  0  0  0  0  0  0  0  0  0  0
    2.7512   -2.5366    0.0000 C   0  0  0  0  0  0  0  0  0  0  0  0
    3.4186   -3.0215    0.0000 C   0  0  0  0  0  0  0  0  0  0  0  0
    3.1637   -3.8062    0.0000 S   0  0  0  0  0  0  0  0  0  0  0  0
    2.3387   -3.8062    0.0000 C   0  0  0  0  0  0  0  0  0  0  0  0
    2.0837   -3.0215    0.0000 N   0  0  0  0  0  0  0  0  0  0  0  0
    1.8538   -4.4736    0.0000 C   0  0  0  0  0  0  0  0  0  0  0  0
    2.1087   -5.2582    0.0000 O   0  0  0  0  0  0  0  0  0  0  0  0
    1.4413   -5.7431    0.0000 C   0  0  0  0  0  0  0  0  0  0  0  0
    1.4413   -6.5681    0.0000 C   0  0  0  0  0  0  0  0  0  0  0  0
    0.7738   -5.2582    0.0000 C   0  0  0  0  0  0  0  0  0  0  0  0
    1.0288   -4.4736    0.0000 C   0  0  0  0  0  0  0  0  0  0  0  0
  1  2  1  0  0  0  0
  2  3  1  0  0  0  0
  2  4  1  0  0  0  0
  4  5  1  0  0  0  0
  5  6  1  0  0  0  0
  6  7  2  0  0  0  0
  7  8  1  0  0  0  0
  8  9  2  0  0  0  0
  9 10  1  0  0  0  0
 10 11  2  0  0  0  0
  6 11  1  0  0  0  0
  4 12  1  0  0  0  0
 12 13  1  0  0  0  0
 13 14  2  0  0  0  0
 14 15  1  0  0  0  0
 15 16  1  0  0  0  0
 16 17  2  0  0  0  0
 13 17  1  0  0  0  0
 16 18  1  0  0  0  0
 18 19  1  0  0  0  0
 19 20  1  0  0  0  0
 20 21  1  0  0  0  0
 20 22  2  0  0  0  0
 22 23  1  0  0  0  0
 18 23  2  0  0  0  0
M  END
> <COMPOUND_ID>
MMV1088520

$$$$

  Mrv0541 04191616472D          

 24 27  0  0  0  0            999 V2000
   -2.0412   -3.6796    0.0000 F   0  0  0  0  0  0  0  0  0  0  0  0
   -1.3268   -3.2671    0.0000 C   0  0  0  0  0  0  0  0  0  0  0  0
   -1.3268   -2.4421    0.0000 C   0  0  0  0  0  0  0  0  0  0  0  0
   -0.6123   -2.0296    0.0000 C   0  0  0  0  0  0  0  0  0  0  0  0
    0.1022   -2.4421    0.0000 C   0  0  0  0  0  0  0  0  0  0  0  0
    0.1022   -3.2671    0.0000 C   0  0  0  0  0  0  0  0  0  0  0  0
   -0.6123   -3.6796    0.0000 C   0  0  0  0  0  0  0  0  0  0  0  0
   -0.6123   -4.5046    0.0000 C   0  0  0  0  0  0  0  0  0  0  0  0
   -0.1998   -5.2191    0.0000 C   0  0  0  0  0  0  0  0  0  0  0  0
   -1.0248   -5.2191    0.0000 C   0  0  0  0  0  0  0  0  0  0  0  0
   -1.7393   -5.6316    0.0000 C   0  0  0  0  0  0  0  0  0  0  0  0
   -2.4537   -5.2191    0.0000 O   0  0  0  0  0  0  0  0  0  0  0  0
   -1.7393   -6.4566    0.0000 N   0  0  0  0  0  0  0  0  0  0  0  0
   -2.4537   -6.8691    0.0000 C   0  0  0  0  0  0  0  0  0  0  0  0
   -2.5400   -7.6896    0.0000 N   0  0  0  0  0  0  0  0  0  0  0  0
   -3.3469   -7.8611    0.0000 C   0  0  0  0  0  0  0  0  0  0  0  0
   -3.7594   -7.1466    0.0000 C   0  0  0  0  0  0  0  0  0  0  0  0
   -3.2074   -6.5335    0.0000 S   0  0  0  0  0  0  0  0  0  0  0  0
   -3.6825   -8.6148    0.0000 C   0  0  0  0  0  0  0  0  0  0  0  0
   -3.1976   -9.2822    0.0000 C   0  0  0  0  0  0  0  0  0  0  0  0
   -3.5331  -10.0359    0.0000 C   0  0  0  0  0  0  0  0  0  0  0  0
   -4.3536  -10.1221    0.0000 C   0  0  0  0  0  0  0  0  0  0  0  0
   -4.8385   -9.4547    0.0000 C   0  0  0  0  0  0  0  0  0  0  0  0
   -4.5030   -8.7010    0.0000 N   0  0  0  0  0  0  0  0  0  0  0  0
  1  2  1  0  0  0  0
  2  3  2  0  0  0  0
  3  4  1  0  0  0  0
  4  5  2  0  0  0  0
  5  6  1  0  0  0  0
  6  7  2  0  0  0  0
  2  7  1  0  0  0  0
  7  8  1  0  0  0  0
  8  9  1  0  0  0  0
  9 10  1  0  0  0  0
  8 10  1  0  0  0  0
 10 11  1  0  0  0  0
 11 12  2  0  0  0  0
 11 13  1  0  0  0  0
 13 14  1  0  0  0  0
 14 15  2  0  0  0  0
 15 16  1  0  0  0  0
 16 17  2  0  0  0  0
 17 18  1  0  0  0  0
 14 18  1  0  0  0  0
 16 19  1  0  0  0  0
 19 20  2  0  0  0  0
 20 21  1  0  0  0  0
 21 22  2  0  0  0  0
 22 23  1  0  0  0  0
 23 24  2  0  0  0  0
 19 24  1  0  0  0  0
M  END
> <COMPOUND_ID>
MMV1028806

$$$$

  Mrv0541 04191616472D          

 25 28  0  0  0  0            999 V2000
    4.7199   -4.8507    0.0000 C   0  0  0  0  0  0  0  0  0  0  0  0
    4.9748   -4.0660    0.0000 C   0  0  0  0  0  0  0  0  0  0  0  0
    4.4228   -3.4530    0.0000 C   0  0  0  0  0  0  0  0  0  0  0  0
    4.6777   -2.6683    0.0000 N   0  0  0  0  0  0  0  0  0  0  0  0
    4.1928   -2.0009    0.0000 C   0  0  0  0  0  0  0  0  0  0  0  0
    3.3678   -2.0009    0.0000 N   0  0  0  0  0  0  0  0  0  0  0  0
    2.9553   -2.7154    0.0000 C   0  0  0  0  0  0  0  0  0  0  0  0
    3.3678   -3.4298    0.0000 O   0  0  0  0  0  0  0  0  0  0  0  0
    2.1303   -2.7154    0.0000 C   0  0  0  0  0  0  0  0  0  0  0  0
    1.7178   -3.4298    0.0000 C   0  0  0  0  0  0  0  0  0  0  0  0
    0.8928   -3.4298    0.0000 C   0  0  0  0  0  0  0  0  0  0  0  0
    0.4803   -2.7154    0.0000 C   0  0  0  0  0  0  0  0  0  0  0  0
   -0.3447   -2.7154    0.0000 C   0  0  0  0  0  0  0  0  0  0  0  0
   -0.7572   -2.0009    0.0000 C   0  0  0  0  0  0  0  0  0  0  0  0
   -0.3447   -1.2864    0.0000 C   0  0  0  0  0  0  0  0  0  0  0  0
    0.4803   -1.2864    0.0000 C   0  0  0  0  0  0  0  0  0  0  0  0
    0.8928   -2.0009    0.0000 C   0  0  0  0  0  0  0  0  0  0  0  0
    1.7178   -2.0009    0.0000 N   0  0  0  0  0  0  0  0  0  0  0  0
    4.6777   -1.3335    0.0000 N   0  0  0  0  0  0  0  0  0  0  0  0
    5.4623   -1.5884    0.0000 C   0  0  0  0  0  0  0  0  0  0  0  0
    6.1768   -1.1759    0.0000 C   0  0  0  0  0  0  0  0  0  0  0  0
    6.8913   -1.5884    0.0000 C   0  0  0  0  0  0  0  0  0  0  0  0
    6.8913   -2.4134    0.0000 C   0  0  0  0  0  0  0  0  0  0  0  0
    6.1768   -2.8259    0.0000 C   0  0  0  0  0  0  0  0  0  0  0  0
    5.4623   -2.4134    0.0000 C   0  0  0  0  0  0  0  0  0  0  0  0
  1  2  1  0  0  0  0
  2  3  1  0  0  0  0
  3  4  1  0  0  0  0
  4  5  1  0  0  0  0
  5  6  1  0  0  0  0
  6  7  1  0  0  0  0
  7  8  2  0  0  0  0
  7  9  1  0  0  0  0
  9 10  2  0  0  0  0
 10 11  1  0  0  0  0
 11 12  2  0  0  0  0
 12 13  1  0  0  0  0
 13 14  2  0  0  0  0
 14 15  1  0  0  0  0
 15 16  2  0  0  0  0
 16 17  1  0  0  0  0
 12 17  1  0  0  0  0
 17 18  2  0  0  0  0
  9 18  1  0  0  0  0
  5 19  2  0  0  0  0
 19 20  1  0  0  0  0
 20 21  2  0  0  0  0
 21 22  1  0  0  0  0
 22 23  2  0  0  0  0
 23 24  1  0  0  0  0
 24 25  2  0  0  0  0
  4 25  1  0  0  0  0
 20 25  1  0  0  0  0
M  END
> <COMPOUND_ID>
MMV1030799

$$$$

  Mrv0541 04191616472D          

 25 27  0  0  0  0            999 V2000
   -2.8579   -1.6500    0.0000 C   0  0  0  0  0  0  0  0  0  0  0  0
   -2.1434   -1.2375    0.0000 C   0  0  0  0  0  0  0  0  0  0  0  0
   -1.4289   -1.6500    0.0000 N   0  0  0  0  0  0  0  0  0  0  0  0
   -0.7145   -1.2375    0.0000 C   0  0  0  0  0  0  0  0  0  0  0  0
   -0.7145   -0.4125    0.0000 O   0  0  0  0  0  0  0  0  0  0  0  0
    0.0000   -1.6500    0.0000 C   0  0  0  0  0  0  0  0  0  0  0  0
    0.0000   -2.4750    0.0000 C   0  0  0  0  0  0  0  0  0  0  0  0
    0.7145   -1.2375    0.0000 N   0  0  0  0  0  0  0  0  0  0  0  0
    0.7145   -0.4125    0.0000 C   0  0  0  0  0  0  0  0  0  0  0  0
    0.0000   -0.0000    0.0000 N   0  0  0  0  0  0  0  0  0  0  0  0
    0.0000    0.8250    0.0000 C   0  0  0  0  0  0  0  0  0  0  0  0
    0.7145    1.2375    0.0000 N   0  0  0  0  0  0  0  0  0  0  0  0
    1.4289    0.8250    0.0000 C   0  0  0  0  0  0  0  0  0  0  0  0
    2.2136    1.0799    0.0000 S   0  0  0  0  0  0  0  0  0  0  0  0
    2.6985    0.4125    0.0000 C   0  0  0  0  0  0  0  0  0  0  0  0
    3.5235    0.4125    0.0000 C   0  0  0  0  0  0  0  0  0  0  0  0
    2.2136   -0.2549    0.0000 C   0  0  0  0  0  0  0  0  0  0  0  0
    2.4685   -1.0396    0.0000 C   0  0  0  0  0  0  0  0  0  0  0  0
    1.4289   -0.0000    0.0000 C   0  0  0  0  0  0  0  0  0  0  0  0
   -0.7145    1.2375    0.0000 C   0  0  0  0  0  0  0  0  0  0  0  0
   -1.4289    0.8250    0.0000 C   0  0  0  0  0  0  0  0  0  0  0  0
   -2.1434    1.2375    0.0000 C   0  0  0  0  0  0  0  0  0  0  0  0
   -2.1434    2.0625    0.0000 C   0  0  0  0  0  0  0  0  0  0  0  0
   -1.4289    2.4750    0.0000 N   0  0  0  0  0  0  0  0  0  0  0  0
   -0.7145    2.0625    0.0000 C   0  0  0  0  0  0  0  0  0  0  0  0
  1  2  1  0  0  0  0
  2  3  1  0  0  0  0
  3  4  1  0  0  0  0
  4  5  2  0  0  0  0
  4  6  1  0  0  0  0
  6  7  1  0  0  0  0
  6  8  1  0  0  0  0
  8  9  1  0  0  0  0
  9 10  1  0  0  0  0
 10 11  2  0  0  0  0
 11 12  1  0  0  0  0
 12 13  2  0  0  0  0
 13 14  1  0  0  0  0
 14 15  1  0  0  0  0
 15 16  1  0  0  0  0
 15 17  2  0  0  0  0
 17 18  1  0  0  0  0
 17 19  1  0  0  0  0
  9 19  2  0  0  0  0
 13 19  1  0  0  0  0
 11 20  1  0  0  0  0
 20 21  2  0  0  0  0
 21 22  1  0  0  0  0
 22 23  2  0  0  0  0
 23 24  1  0  0  0  0
 24 25  2  0  0  0  0
 20 25  1  0  0  0  0
M  END
> <COMPOUND_ID>
MMV1037162

$$$$

  Mrv0541 04191616472D          

 27 30  0  0  0  0            999 V2000
    1.8500    4.5375    0.0000 C   0  0  0  0  0  0  0  0  0  0  0  0
    1.8500    3.7125    0.0000 N   0  0  0  0  0  0  0  0  0  0  0  0
    2.5645    3.3000    0.0000 C   0  0  0  0  0  0  0  0  0  0  0  0
    3.2789    3.7125    0.0000 O   0  0  0  0  0  0  0  0  0  0  0  0
    2.5645    2.4750    0.0000 C   0  0  0  0  0  0  0  0  0  0  0  0
    3.2789    2.0625    0.0000 N   0  0  0  0  0  0  0  0  0  0  0  0
    3.2789    1.2375    0.0000 C   0  0  0  0  0  0  0  0  0  0  0  0
    3.9934    0.8250    0.0000 N   0  0  0  0  0  0  0  0  0  0  0  0
    3.9934    0.0000    0.0000 C   0  0  0  0  0  0  0  0  0  0  0  0
    3.2789   -0.4125    0.0000 N   0  0  0  0  0  0  0  0  0  0  0  0
    2.5645    0.0000    0.0000 C   0  0  0  0  0  0  0  0  0  0  0  0
    1.7798   -0.2549    0.0000 S   0  0  0  0  0  0  0  0  0  0  0  0
    1.2949    0.4125    0.0000 C   0  0  0  0  0  0  0  0  0  0  0  0
    1.7798    1.0799    0.0000 C   0  0  0  0  0  0  0  0  0  0  0  0
    1.5249    1.8646    0.0000 C   0  0  0  0  0  0  0  0  0  0  0  0
    0.7179    2.0361    0.0000 C   0  0  0  0  0  0  0  0  0  0  0  0
    0.4630    2.8207    0.0000 C   0  0  0  0  0  0  0  0  0  0  0  0
    1.0150    3.4338    0.0000 C   0  0  0  0  0  0  0  0  0  0  0  0
    1.8220    3.2623    0.0000 C   0  0  0  0  0  0  0  0  0  0  0  0
    2.0769    2.4777    0.0000 C   0  0  0  0  0  0  0  0  0  0  0  0
    2.5645    0.8250    0.0000 C   0  0  0  0  0  0  0  0  0  0  0  0
    4.7079   -0.4125    0.0000 C   0  0  0  0  0  0  0  0  0  0  0  0
    5.4223   -0.0000    0.0000 C   0  0  0  0  0  0  0  0  0  0  0  0
    6.1368   -0.4125    0.0000 C   0  0  0  0  0  0  0  0  0  0  0  0
    6.1368   -1.2375    0.0000 C   0  0  0  0  0  0  0  0  0  0  0  0
    5.4223   -1.6500    0.0000 C   0  0  0  0  0  0  0  0  0  0  0  0
    4.7079   -1.2375    0.0000 N   0  0  0  0  0  0  0  0  0  0  0  0
  1  2  1  0  0  0  0
  2  3  1  0  0  0  0
  3  4  2  0  0  0  0
  3  5  1  0  0  0  0
  5  6  1  0  0  0  0
  6  7  1  0  0  0  0
  7  8  1  0  0  0  0
  8  9  2  0  0  0  0
  9 10  1  0  0  0  0
 10 11  2  0  0  0  0
 11 12  1  0  0  0  0
 12 13  1  0  0  0  0
 13 14  2  0  0  0  0
 14 15  1  0  0  0  0
 15 16  2  0  0  0  0
 16 17  1  0  0  0  0
 17 18  2  0  0  0  0
 18 19  1  0  0  0  0
 19 20  2  0  0  0  0
 15 20  1  0  0  0  0
 14 21  1  0  0  0  0
  7 21  2  0  0  0  0
 11 21  1  0  0  0  0
  9 22  1  0  0  0  0
 22 23  2  0  0  0  0
 23 24  1  0  0  0  0
 24 25  2  0  0  0  0
 25 26  1  0  0  0  0
 26 27  2  0  0  0  0
 22 27  1  0  0  0  0
M  END
> <COMPOUND_ID>
MMV1029203

$$$$

  Mrv0541 04191616472D          

 21 23  0  0  0  0            999 V2000
    2.7845    0.6979    0.0000 C   0  0  0  0  0  0  0  0  0  0  0  0
    2.0701    1.1104    0.0000 C   0  0  0  0  0  0  0  0  0  0  0  0
    1.3556    0.6979    0.0000 N   0  0  0  0  0  0  0  0  0  0  0  0
    0.6411    1.1104    0.0000 C   0  0  0  0  0  0  0  0  0  0  0  0
   -0.1435    0.8555    0.0000 N   0  0  0  0  0  0  0  0  0  0  0  0
   -0.6284    1.5229    0.0000 C   0  0  0  0  0  0  0  0  0  0  0  0
   -0.1435    2.1904    0.0000 C   0  0  0  0  0  0  0  0  0  0  0  0
    0.6411    1.9354    0.0000 N   0  0  0  0  0  0  0  0  0  0  0  0
    1.3556    2.3479    0.0000 C   0  0  0  0  0  0  0  0  0  0  0  0
    1.3556    3.1729    0.0000 N   0  0  0  0  0  0  0  0  0  0  0  0
    2.0701    3.5854    0.0000 C   0  0  0  0  0  0  0  0  0  0  0  0
    2.0701    4.4104    0.0000 C   0  0  0  0  0  0  0  0  0  0  0  0
    2.7845    4.8229    0.0000 C   0  0  0  0  0  0  0  0  0  0  0  0
    3.4990    4.4104    0.0000 C   0  0  0  0  0  0  0  0  0  0  0  0
    4.2135    4.8229    0.0000 C   0  0  0  0  0  0  0  0  0  0  0  0
    4.9279    5.2354    0.0000 F   0  0  0  0  0  0  0  0  0  0  0  0
    4.6260    4.1085    0.0000 F   0  0  0  0  0  0  0  0  0  0  0  0
    3.8010    5.5374    0.0000 F   0  0  0  0  0  0  0  0  0  0  0  0
    3.4990    3.5854    0.0000 C   0  0  0  0  0  0  0  0  0  0  0  0
    2.7845    3.1729    0.0000 C   0  0  0  0  0  0  0  0  0  0  0  0
    2.0701    1.9354    0.0000 C   0  0  0  0  0  0  0  0  0  0  0  0
  1  2  1  0  0  0  0
  2  3  2  0  0  0  0
  3  4  1  0  0  0  0
  4  5  2  0  0  0  0
  5  6  1  0  0  0  0
  6  7  2  0  0  0  0
  7  8  1  0  0  0  0
  4  8  1  0  0  0  0
  8  9  1  0  0  0  0
  9 10  1  0  0  0  0
 10 11  1  0  0  0  0
 11 12  2  0  0  0  0
 12 13  1  0  0  0  0
 13 14  2  0  0  0  0
 14 15  1  0  0  0  0
 15 16  1  0  0  0  0
 15 17  1  0  0  0  0
 15 18  1  0  0  0  0
 14 19  1  0  0  0  0
 19 20  2  0  0  0  0
 11 20  1  0  0  0  0
  9 21  2  0  0  0  0
  2 21  1  0  0  0  0
M  END
> <COMPOUND_ID>
MMV011229

$$$$

  Mrv0541 04191616472D          

 27 30  0  0  0  0            999 V2000
   -2.1434   -2.8875    0.0000 C   0  0  0  0  0  0  0  0  0  0  0  0
   -1.4289   -2.4750    0.0000 C   0  0  0  0  0  0  0  0  0  0  0  0
   -1.4289   -1.6500    0.0000 C   0  0  0  0  0  0  0  0  0  0  0  0
   -0.7145   -1.2375    0.0000 C   0  0  0  0  0  0  0  0  0  0  0  0
    0.0000   -1.6500    0.0000 C   0  0  0  0  0  0  0  0  0  0  0  0
    0.0000   -2.4750    0.0000 C   0  0  0  0  0  0  0  0  0  0  0  0
   -0.7145   -2.8875    0.0000 C   0  0  0  0  0  0  0  0  0  0  0  0
    0.7145   -1.2375    0.0000 C   0  0  0  0  0  0  0  0  0  0  0  0
    0.7145   -0.4125    0.0000 C   0  0  0  0  0  0  0  0  0  0  0  0
    1.4289    0.0000    0.0000 C   0  0  0  0  0  0  0  0  0  0  0  0
    2.1434   -0.4125    0.0000 C   0  0  0  0  0  0  0  0  0  0  0  0
    2.8579    0.0000    0.0000 C   0  0  0  0  0  0  0  0  0  0  0  0
    3.5724   -0.4125    0.0000 C   0  0  0  0  0  0  0  0  0  0  0  0
    3.5724   -1.2375    0.0000 C   0  0  0  0  0  0  0  0  0  0  0  0
    2.8579   -1.6500    0.0000 C   0  0  0  0  0  0  0  0  0  0  0  0
    2.1434   -1.2375    0.0000 C   0  0  0  0  0  0  0  0  0  0  0  0
    1.4289   -1.6500    0.0000 N   0  0  0  0  0  0  0  0  0  0  0  0
    4.2868   -0.0000    0.0000 Br  0  0  0  0  0  0  0  0  0  0  0  0
    1.4289    0.8250    0.0000 C   0  0  0  0  0  0  0  0  0  0  0  0
    2.1434    1.2375    0.0000 O   0  0  0  0  0  0  0  0  0  0  0  0
    0.7145    1.2375    0.0000 N   0  0  0  0  0  0  0  0  0  0  0  0
    0.7145    2.0625    0.0000 C   0  0  0  0  0  0  0  0  0  0  0  0
    0.0000    2.4750    0.0000 C   0  0  0  0  0  0  0  0  0  0  0  0
    0.0000    3.3000    0.0000 C   0  0  0  0  0  0  0  0  0  0  0  0
    0.7145    3.7125    0.0000 C   0  0  0  0  0  0  0  0  0  0  0  0
    1.4289    3.3000    0.0000 N   0  0  0  0  0  0  0  0  0  0  0  0
    1.4289    2.4750    0.0000 C   0  0  0  0  0  0  0  0  0  0  0  0
  1  2  1  0  0  0  0
  2  3  2  0  0  0  0
  3  4  1  0  0  0  0
  4  5  2  0  0  0  0
  5  6  1  0  0  0  0
  6  7  2  0  0  0  0
  2  7  1  0  0  0  0
  5  8  1  0  0  0  0
  8  9  2  0  0  0  0
  9 10  1  0  0  0  0
 10 11  2  0  0  0  0
 11 12  1  0  0  0  0
 12 13  2  0  0  0  0
 13 14  1  0  0  0  0
 14 15  2  0  0  0  0
 15 16  1  0  0  0  0
 11 16  1  0  0  0  0
 16 17  2  0  0  0  0
  8 17  1  0  0  0  0
 13 18  1  0  0  0  0
 10 19  1  0  0  0  0
 19 20  2  0  0  0  0
 19 21  1  0  0  0  0
 21 22  1  0  0  0  0
 22 23  2  0  0  0  0
 23 24  1  0  0  0  0
 24 25  2  0  0  0  0
 25 26  1  0  0  0  0
 26 27  2  0  0  0  0
 22 27  1  0  0  0  0
M  END
> <COMPOUND_ID>
MMV016838

$$$$

  Mrv0541 04191616472D          

 30 33  0  0  0  0            999 V2000
    0.0000   -1.6500    0.0000 Cl  0  0  0  0  0  0  0  0  0  0  0  0
    0.7145   -1.2375    0.0000 C   0  0  0  0  0  0  0  0  0  0  0  0
    0.7145   -0.4125    0.0000 C   0  0  0  0  0  0  0  0  0  0  0  0
    1.4289    0.0000    0.0000 C   0  0  0  0  0  0  0  0  0  0  0  0
    2.1434   -0.4125    0.0000 C   0  0  0  0  0  0  0  0  0  0  0  0
    2.8579    0.0000    0.0000 N   0  0  0  0  0  0  0  0  0  0  0  0
    3.5724   -0.4125    0.0000 C   0  0  0  0  0  0  0  0  0  0  0  0
    3.5724   -1.2375    0.0000 C   0  0  0  0  0  0  0  0  0  0  0  0
    2.8579   -1.6500    0.0000 C   0  0  0  0  0  0  0  0  0  0  0  0
    2.1434   -1.2375    0.0000 C   0  0  0  0  0  0  0  0  0  0  0  0
    1.4289   -1.6500    0.0000 C   0  0  0  0  0  0  0  0  0  0  0  0
    2.8579   -2.4750    0.0000 C   0  0  0  0  0  0  0  0  0  0  0  0
    3.5724   -2.8875    0.0000 O   0  0  0  0  0  0  0  0  0  0  0  0
    2.1434   -2.8875    0.0000 N   0  0  0  0  0  0  0  0  0  0  0  0
    2.1434   -3.7125    0.0000 C   0  0  0  0  0  0  0  0  0  0  0  0
    1.4289   -4.1250    0.0000 C   0  0  0  0  0  0  0  0  0  0  0  0
    1.4289   -4.9500    0.0000 N   0  0  0  0  0  0  0  0  0  0  0  0
    2.0964   -5.4349    0.0000 C   0  0  0  0  0  0  0  0  0  0  0  0
    1.8414   -6.2195    0.0000 C   0  0  0  0  0  0  0  0  0  0  0  0
    1.0164   -6.2195    0.0000 C   0  0  0  0  0  0  0  0  0  0  0  0
    0.7615   -5.4349    0.0000 C   0  0  0  0  0  0  0  0  0  0  0  0
    4.2868   -0.0000    0.0000 N   0  0  0  0  0  0  0  0  0  0  0  0
    5.0013   -0.4125    0.0000 C   0  0  0  0  0  0  0  0  0  0  0  0
    5.7158   -0.0000    0.0000 C   0  0  0  0  0  0  0  0  0  0  0  0
    5.7158    0.8250    0.0000 N   0  0  0  0  0  0  0  0  0  0  0  0
    5.0013    1.2375    0.0000 C   0  0  0  0  0  0  0  0  0  0  0  0
    5.0013    2.0625    0.0000 C   0  0  0  0  0  0  0  0  0  0  0  0
    5.7158    2.4750    0.0000 O   0  0  0  0  0  0  0  0  0  0  0  0
    6.4302    2.0625    0.0000 C   0  0  0  0  0  0  0  0  0  0  0  0
    6.4302    1.2375    0.0000 C   0  0  0  0  0  0  0  0  0  0  0  0
  1  2  1  0  0  0  0
  2  3  2  0  0  0  0
  3  4  1  0  0  0  0
  4  5  2  0  0  0  0
  5  6  1  0  0  0  0
  6  7  2  0  0  0  0
  7  8  1  0  0  0  0
  8  9  2  0  0  0  0
  9 10  1  0  0  0  0
  5 10  1  0  0  0  0
 10 11  2  0  0  0  0
  2 11  1  0  0  0  0
  9 12  1  0  0  0  0
 12 13  2  0  0  0  0
 12 14  1  0  0  0  0
 14 15  1  0  0  0  0
 15 16  1  0  0  0  0
 16 17  1  0  0  0  0
 17 18  1  0  0  0  0
 18 19  1  0  0  0  0
 19 20  1  0  0  0  0
 20 21  1  0  0  0  0
 17 21  1  0  0  0  0
  7 22  1  0  0  0  0
 22 23  1  0  0  0  0
 23 24  1  0  0  0  0
 24 25  1  0  0  0  0
 25 26  1  0  0  0  0
 26 27  1  0  0  0  0
 27 28  1  0  0  0  0
 28 29  1  0  0  0  0
 29 30  1  0  0  0  0
 25 30  1  0  0  0  0
M  END
> <COMPOUND_ID>
MMV634140

$$$$

  Mrv0541 04191616472D          

 34 37  0  0  0  0            999 V2000
    2.7599   -2.7442    0.0000 F   0  0  0  0  0  0  0  0  0  0  0  0
    3.5724   -2.8875    0.0000 C   0  0  0  0  0  0  0  0  0  0  0  0
    3.2902   -3.6627    0.0000 F   0  0  0  0  0  0  0  0  0  0  0  0
    3.5724   -2.0625    0.0000 C   0  0  0  0  0  0  0  0  0  0  0  0
    4.2868   -1.6500    0.0000 C   0  0  0  0  0  0  0  0  0  0  0  0
    5.0013   -2.0625    0.0000 N   0  0  0  0  0  0  0  0  0  0  0  0
    5.7158   -1.6500    0.0000 C   0  0  0  0  0  0  0  0  0  0  0  0
    6.4302   -2.0625    0.0000 C   0  0  0  0  0  0  0  0  0  0  0  0
    7.1447   -1.6500    0.0000 C   0  0  0  0  0  0  0  0  0  0  0  0
    7.8592   -2.0625    0.0000 C   0  0  0  0  0  0  0  0  0  0  0  0
    8.5737   -1.6500    0.0000 N   0  0  0  0  0  0  0  0  0  0  0  0
    9.2881   -2.0625    0.0000 C   0  0  0  0  0  0  0  0  0  0  0  0
   10.0026   -1.6500    0.0000 C   0  0  0  0  0  0  0  0  0  0  0  0
   10.7171   -2.0625    0.0000 C   0  0  0  0  0  0  0  0  0  0  0  0
   10.7171   -2.8875    0.0000 C   0  0  0  0  0  0  0  0  0  0  0  0
   11.4315   -3.3000    0.0000 C   0  0  0  0  0  0  0  0  0  0  0  0
   11.4315   -4.1250    0.0000 C   0  0  0  0  0  0  0  0  0  0  0  0
   10.7171   -4.5375    0.0000 C   0  0  0  0  0  0  0  0  0  0  0  0
   10.0026   -4.1250    0.0000 C   0  0  0  0  0  0  0  0  0  0  0  0
   10.0026   -3.3000    0.0000 C   0  0  0  0  0  0  0  0  0  0  0  0
    9.2881   -2.8875    0.0000 N   0  0  0  0  0  0  0  0  0  0  0  0
   12.1460   -4.5375    0.0000 Cl  0  0  0  0  0  0  0  0  0  0  0  0
   11.4315   -1.6500    0.0000 C   0  0  0  0  0  0  0  0  0  0  0  0
   12.1460   -2.0625    0.0000 O   0  0  0  0  0  0  0  0  0  0  0  0
   11.4315   -0.8250    0.0000 N   0  0  0  0  0  0  0  0  0  0  0  0
   12.1460   -0.4125    0.0000 C   0  0  0  0  0  0  0  0  0  0  0  0
   12.1460    0.4125    0.0000 C   0  0  0  0  0  0  0  0  0  0  0  0
   12.8605    0.8250    0.0000 N   0  0  0  0  0  0  0  0  0  0  0  0
   12.9467    1.6455    0.0000 C   0  0  0  0  0  0  0  0  0  0  0  0
   13.7537    1.8170    0.0000 C   0  0  0  0  0  0  0  0  0  0  0  0
   14.1662    1.1025    0.0000 C   0  0  0  0  0  0  0  0  0  0  0  0
   13.6142    0.4894    0.0000 C   0  0  0  0  0  0  0  0  0  0  0  0
    5.0013   -2.8875    0.0000 C   0  0  0  0  0  0  0  0  0  0  0  0
    4.2868   -3.3000    0.0000 C   0  0  0  0  0  0  0  0  0  0  0  0
  1  2  1  0  0  0  0
  2  3  1  0  0  0  0
  2  4  1  0  0  0  0
  4  5  1  0  0  0  0
  5  6  1  0  0  0  0
  6  7  1  0  0  0  0
  7  8  1  0  0  0  0
  8  9  1  0  0  0  0
  9 10  1  0  0  0  0
 10 11  1  0  0  0  0
 11 12  1  0  0  0  0
 12 13  2  0  0  0  0
 13 14  1  0  0  0  0
 14 15  2  0  0  0  0
 15 16  1  0  0  0  0
 16 17  2  0  0  0  0
 17 18  1  0  0  0  0
 18 19  2  0  0  0  0
 19 20  1  0  0  0  0
 15 20  1  0  0  0  0
 20 21  2  0  0  0  0
 12 21  1  0  0  0  0
 17 22  1  0  0  0  0
 14 23  1  0  0  0  0
 23 24  2  0  0  0  0
 23 25  1  0  0  0  0
 25 26  1  0  0  0  0
 26 27  1  0  0  0  0
 27 28  1  0  0  0  0
 28 29  1  0  0  0  0
 29 30  1  0  0  0  0
 30 31  1  0  0  0  0
 31 32  1  0  0  0  0
 28 32  1  0  0  0  0
  6 33  1  0  0  0  0
 33 34  1  0  0  0  0
  2 34  1  0  0  0  0
M  END
> <COMPOUND_ID>
MMV667494

$$$$

  Mrv0541 04191616472D          

 27 29  0  0  0  0            999 V2000
   -0.7145   -3.7125    0.0000 C   0  0  0  0  0  0  0  0  0  0  0  0
   -1.4289   -3.3000    0.0000 C   0  0  0  0  0  0  0  0  0  0  0  0
   -2.1434   -3.7125    0.0000 C   0  0  0  0  0  0  0  0  0  0  0  0
   -2.8579   -3.3000    0.0000 C   0  0  0  0  0  0  0  0  0  0  0  0
   -3.5724   -3.7125    0.0000 Cl  0  0  0  0  0  0  0  0  0  0  0  0
   -2.8579   -2.4750    0.0000 C   0  0  0  0  0  0  0  0  0  0  0  0
   -2.1434   -2.0625    0.0000 C   0  0  0  0  0  0  0  0  0  0  0  0
   -1.4289   -2.4750    0.0000 C   0  0  0  0  0  0  0  0  0  0  0  0
   -0.7145   -2.0625    0.0000 O   0  0  0  0  0  0  0  0  0  0  0  0
    0.0000   -2.4750    0.0000 C   0  0  0  0  0  0  0  0  0  0  0  0
    0.7145   -2.0625    0.0000 C   0  0  0  0  0  0  0  0  0  0  0  0
    0.7145   -1.2375    0.0000 O   0  0  0  0  0  0  0  0  0  0  0  0
    1.4289   -2.4750    0.0000 N   0  0  0  0  0  0  0  0  0  0  0  0
    2.1434   -2.0625    0.0000 C   0  0  0  0  0  0  0  0  0  0  0  0
    2.1434   -1.2375    0.0000 C   0  0  0  0  0  0  0  0  0  0  0  0
    2.8579   -0.8250    0.0000 C   0  0  0  0  0  0  0  0  0  0  0  0
    3.5724   -1.2375    0.0000 C   0  0  0  0  0  0  0  0  0  0  0  0
    3.5724   -2.0625    0.0000 C   0  0  0  0  0  0  0  0  0  0  0  0
    2.8579   -2.4750    0.0000 C   0  0  0  0  0  0  0  0  0  0  0  0
   -3.5724   -2.0625    0.0000 S   0  0  0  0  0  0  0  0  0  0  0  0
   -3.1599   -1.3480    0.0000 O   0  0  0  0  0  0  0  0  0  0  0  0
   -3.9849   -2.7770    0.0000 O   0  0  0  0  0  0  0  0  0  0  0  0
   -4.2868   -1.6500    0.0000 N   0  0  0  0  0  0  0  0  0  0  0  0
   -5.0405   -1.9856    0.0000 C   0  0  0  0  0  0  0  0  0  0  0  0
   -5.5925   -1.3725    0.0000 C   0  0  0  0  0  0  0  0  0  0  0  0
   -5.1800   -0.6580    0.0000 C   0  0  0  0  0  0  0  0  0  0  0  0
   -4.3731   -0.8295    0.0000 C   0  0  0  0  0  0  0  0  0  0  0  0
  1  2  1  0  0  0  0
  2  3  2  0  0  0  0
  3  4  1  0  0  0  0
  4  5  1  0  0  0  0
  4  6  2  0  0  0  0
  6  7  1  0  0  0  0
  7  8  2  0  0  0  0
  2  8  1  0  0  0  0
  8  9  1  0  0  0  0
  9 10  1  0  0  0  0
 10 11  1  0  0  0  0
 11 12  2  0  0  0  0
 11 13  1  0  0  0  0
 13 14  1  0  0  0  0
 14 15  1  0  0  0  0
 15 16  1  0  0  0  0
 16 17  1  0  0  0  0
 17 18  1  0  0  0  0
 18 19  1  0  0  0  0
 14 19  1  0  0  0  0
  6 20  1  0  0  0  0
 20 21  2  0  0  0  0
 20 22  2  0  0  0  0
 20 23  1  0  0  0  0
 23 24  1  0  0  0  0
 24 25  1  0  0  0  0
 25 26  1  0  0  0  0
 26 27  1  0  0  0  0
 23 27  1  0  0  0  0
M  END
> <COMPOUND_ID>
MMV006833

$$$$

  Mrv0541 04191616472D          

 29 31  0  0  0  0            999 V2000
   -0.0000   11.3036    0.0000 C   0  0  0  0  0  0  0  0  0  0  0  0
   -0.0000   10.4786    0.0000 C   0  0  0  0  0  0  0  0  0  0  0  0
    0.7145   10.0661    0.0000 C   0  0  0  0  0  0  0  0  0  0  0  0
   -0.7145   10.0661    0.0000 N   0  0  0  0  0  0  0  0  0  0  0  0
   -1.4289   10.4786    0.0000 C   0  0  0  0  0  0  0  0  0  0  0  0
   -1.4289   11.3036    0.0000 C   0  0  0  0  0  0  0  0  0  0  0  0
   -2.1434   11.7161    0.0000 C   0  0  0  0  0  0  0  0  0  0  0  0
   -2.1434   12.5411    0.0000 C   0  0  0  0  0  0  0  0  0  0  0  0
   -1.4289   12.9536    0.0000 C   0  0  0  0  0  0  0  0  0  0  0  0
   -0.7145   12.5411    0.0000 C   0  0  0  0  0  0  0  0  0  0  0  0
   -0.7145   11.7161    0.0000 C   0  0  0  0  0  0  0  0  0  0  0  0
   -0.7145    9.2411    0.0000 S   0  0  0  0  0  0  0  0  0  0  0  0
   -1.5395    9.2411    0.0000 O   0  0  0  0  0  0  0  0  0  0  0  0
    0.1105    9.2411    0.0000 O   0  0  0  0  0  0  0  0  0  0  0  0
   -0.7145    8.4161    0.0000 C   0  0  0  0  0  0  0  0  0  0  0  0
   -0.0000    8.0036    0.0000 C   0  0  0  0  0  0  0  0  0  0  0  0
   -0.0000    7.1786    0.0000 C   0  0  0  0  0  0  0  0  0  0  0  0
   -0.7145    6.7661    0.0000 C   0  0  0  0  0  0  0  0  0  0  0  0
   -1.4289    7.1786    0.0000 C   0  0  0  0  0  0  0  0  0  0  0  0
   -1.4289    8.0036    0.0000 C   0  0  0  0  0  0  0  0  0  0  0  0
   -0.7145    5.9411    0.0000 C   0  0  0  0  0  0  0  0  0  0  0  0
   -1.4289    5.5286    0.0000 O   0  0  0  0  0  0  0  0  0  0  0  0
   -0.0000    5.5286    0.0000 N   0  0  0  0  0  0  0  0  0  0  0  0
   -0.0000    4.7036    0.0000 C   0  0  0  0  0  0  0  0  0  0  0  0
    0.6674    4.2187    0.0000 C   0  0  0  0  0  0  0  0  0  0  0  0
    0.4125    3.4340    0.0000 C   0  0  0  0  0  0  0  0  0  0  0  0
    0.8974    2.7666    0.0000 C   0  0  0  0  0  0  0  0  0  0  0  0
   -0.4125    3.4340    0.0000 O   0  0  0  0  0  0  0  0  0  0  0  0
   -0.6674    4.2187    0.0000 N   0  0  0  0  0  0  0  0  0  0  0  0
  1  2  1  0  0  0  0
  2  3  1  0  0  0  0
  2  4  1  0  0  0  0
  4  5  1  0  0  0  0
  5  6  1  0  0  0  0
  6  7  2  0  0  0  0
  7  8  1  0  0  0  0
  8  9  2  0  0  0  0
  9 10  1  0  0  0  0
 10 11  2  0  0  0  0
  6 11  1  0  0  0  0
  4 12  1  0  0  0  0
 12 13  2  0  0  0  0
 12 14  2  0  0  0  0
 12 15  1  0  0  0  0
 15 16  2  0  0  0  0
 16 17  1  0  0  0  0
 17 18  2  0  0  0  0
 18 19  1  0  0  0  0
 19 20  2  0  0  0  0
 15 20  1  0  0  0  0
 18 21  1  0  0  0  0
 21 22  2  0  0  0  0
 21 23  1  0  0  0  0
 23 24  1  0  0  0  0
 24 25  1  0  0  0  0
 25 26  2  0  0  0  0
 26 27  1  0  0  0  0
 26 28  1  0  0  0  0
 28 29  1  0  0  0  0
 24 29  2  0  0  0  0
M  END
> <COMPOUND_ID>
MMV007133

$$$$

  Mrv0541 04191616472D          

 30 33  0  0  0  0            999 V2000
   -4.2962    2.1599    0.0000 C   0  0  0  0  0  0  0  0  0  0  0  0
   -3.8837    1.4455    0.0000 O   0  0  0  0  0  0  0  0  0  0  0  0
   -3.0587    1.4455    0.0000 C   0  0  0  0  0  0  0  0  0  0  0  0
   -2.6462    2.1599    0.0000 C   0  0  0  0  0  0  0  0  0  0  0  0
   -1.8212    2.1599    0.0000 C   0  0  0  0  0  0  0  0  0  0  0  0
   -1.4087    2.8744    0.0000 O   0  0  0  0  0  0  0  0  0  0  0  0
   -0.5837    2.8744    0.0000 C   0  0  0  0  0  0  0  0  0  0  0  0
   -1.4087    1.4455    0.0000 C   0  0  0  0  0  0  0  0  0  0  0  0
   -1.8212    0.7310    0.0000 C   0  0  0  0  0  0  0  0  0  0  0  0
   -2.6462    0.7310    0.0000 C   0  0  0  0  0  0  0  0  0  0  0  0
   -1.4087    0.0165    0.0000 C   0  0  0  0  0  0  0  0  0  0  0  0
   -1.8212   -0.6979    0.0000 O   0  0  0  0  0  0  0  0  0  0  0  0
   -0.5837    0.0165    0.0000 N   0  0  0  0  0  0  0  0  0  0  0  0
   -0.1712   -0.6979    0.0000 C   0  0  0  0  0  0  0  0  0  0  0  0
    0.6538   -0.6979    0.0000 C   0  0  0  0  0  0  0  0  0  0  0  0
    1.1387   -0.0305    0.0000 C   0  0  0  0  0  0  0  0  0  0  0  0
    1.9233   -0.2854    0.0000 C   0  0  0  0  0  0  0  0  0  0  0  0
    2.6378    0.1271    0.0000 C   0  0  0  0  0  0  0  0  0  0  0  0
    3.3523   -0.2854    0.0000 C   0  0  0  0  0  0  0  0  0  0  0  0
    4.0668    0.1271    0.0000 Cl  0  0  0  0  0  0  0  0  0  0  0  0
    3.3523   -1.1104    0.0000 C   0  0  0  0  0  0  0  0  0  0  0  0
    2.6378   -1.5229    0.0000 C   0  0  0  0  0  0  0  0  0  0  0  0
    1.9233   -1.1104    0.0000 C   0  0  0  0  0  0  0  0  0  0  0  0
    1.1387   -1.3654    0.0000 O   0  0  0  0  0  0  0  0  0  0  0  0
    2.6378   -2.3479    0.0000 C   0  0  0  0  0  0  0  0  0  0  0  0
    3.3523   -2.7604    0.0000 C   0  0  0  0  0  0  0  0  0  0  0  0
    3.3523   -3.5854    0.0000 C   0  0  0  0  0  0  0  0  0  0  0  0
    2.6378   -3.9979    0.0000 N   0  0  0  0  0  0  0  0  0  0  0  0
    1.9233   -3.5854    0.0000 C   0  0  0  0  0  0  0  0  0  0  0  0
    1.9233   -2.7604    0.0000 C   0  0  0  0  0  0  0  0  0  0  0  0
  1  2  1  0  0  0  0
  2  3  1  0  0  0  0
  3  4  2  0  0  0  0
  4  5  1  0  0  0  0
  5  6  1  0  0  0  0
  6  7  1  0  0  0  0
  5  8  2  0  0  0  0
  8  9  1  0  0  0  0
  9 10  2  0  0  0  0
  3 10  1  0  0  0  0
  9 11  1  0  0  0  0
 11 12  2  0  0  0  0
 11 13  1  0  0  0  0
 13 14  1  0  0  0  0
 14 15  1  0  0  0  0
 15 16  1  0  0  0  0
 16 17  1  0  0  0  0
 17 18  2  0  0  0  0
 18 19  1  0  0  0  0
 19 20  1  0  0  0  0
 19 21  2  0  0  0  0
 21 22  1  0  0  0  0
 22 23  2  0  0  0  0
 17 23  1  0  0  0  0
 23 24  1  0  0  0  0
 15 24  1  0  0  0  0
 22 25  1  0  0  0  0
 25 26  2  0  0  0  0
 26 27  1  0  0  0  0
 27 28  2  0  0  0  0
 28 29  1  0  0  0  0
 29 30  2  0  0  0  0
 25 30  1  0  0  0  0
M  END
> <COMPOUND_ID>
MMV007471

$$$$

  Mrv0541 04191616472D          

 29 32  0  0  0  0            999 V2000
    1.4289   -4.1250    0.0000 C   0  0  0  0  0  0  0  0  0  0  0  0
    1.4289   -4.9500    0.0000 C   0  0  0  0  0  0  0  0  0  0  0  0
    2.0964   -5.4349    0.0000 C   0  0  0  0  0  0  0  0  0  0  0  0
    1.8414   -6.2195    0.0000 C   0  0  0  0  0  0  0  0  0  0  0  0
    2.3264   -6.8870    0.0000 C   0  0  0  0  0  0  0  0  0  0  0  0
    1.0164   -6.2195    0.0000 N   0  0  0  0  0  0  0  0  0  0  0  0
    0.7615   -5.4349    0.0000 N   0  0  0  0  0  0  0  0  0  0  0  0
    0.5315   -6.8870    0.0000 C   0  0  0  0  0  0  0  0  0  0  0  0
    0.8671   -7.6407    0.0000 C   0  0  0  0  0  0  0  0  0  0  0  0
    0.3822   -8.3081    0.0000 C   0  0  0  0  0  0  0  0  0  0  0  0
   -0.4383   -8.2219    0.0000 C   0  0  0  0  0  0  0  0  0  0  0  0
   -0.9232   -8.8893    0.0000 N   0  0  0  0  0  0  0  0  0  0  0  0
   -0.5877   -9.6430    0.0000 C   0  0  0  0  0  0  0  0  0  0  0  0
    0.2328   -9.7292    0.0000 O   0  0  0  0  0  0  0  0  0  0  0  0
   -1.0726  -10.3104    0.0000 C   0  0  0  0  0  0  0  0  0  0  0  0
   -0.7371  -11.0641    0.0000 C   0  0  0  0  0  0  0  0  0  0  0  0
   -1.2220  -11.7315    0.0000 C   0  0  0  0  0  0  0  0  0  0  0  0
   -2.0425  -11.6453    0.0000 N   0  0  0  0  0  0  0  0  0  0  0  0
   -2.5274  -12.3127    0.0000 C   0  0  0  0  0  0  0  0  0  0  0  0
   -2.1918  -13.0664    0.0000 C   0  0  0  0  0  0  0  0  0  0  0  0
   -1.3849  -13.2379    0.0000 C   0  0  0  0  0  0  0  0  0  0  0  0
   -1.2986  -14.0584    0.0000 N   0  0  0  0  0  0  0  0  0  0  0  0
   -2.0523  -14.3940    0.0000 C   0  0  0  0  0  0  0  0  0  0  0  0
   -2.2238  -15.2009    0.0000 C   0  0  0  0  0  0  0  0  0  0  0  0
   -2.6043  -13.7809    0.0000 S   0  0  0  0  0  0  0  0  0  0  0  0
   -2.3780  -10.8916    0.0000 C   0  0  0  0  0  0  0  0  0  0  0  0
   -1.8931  -10.2242    0.0000 C   0  0  0  0  0  0  0  0  0  0  0  0
   -0.7739   -7.4682    0.0000 C   0  0  0  0  0  0  0  0  0  0  0  0
   -0.2890   -6.8007    0.0000 C   0  0  0  0  0  0  0  0  0  0  0  0
  1  2  1  0  0  0  0
  2  3  1  0  0  0  0
  3  4  2  0  0  0  0
  4  5  1  0  0  0  0
  4  6  1  0  0  0  0
  6  7  1  0  0  0  0
  2  7  2  0  0  0  0
  6  8  1  0  0  0  0
  8  9  2  0  0  0  0
  9 10  1  0  0  0  0
 10 11  2  0  0  0  0
 11 12  1  0  0  0  0
 12 13  1  0  0  0  0
 13 14  2  0  0  0  0
 13 15  1  0  0  0  0
 15 16  1  0  0  0  0
 16 17  1  0  0  0  0
 17 18  1  0  0  0  0
 18 19  1  0  0  0  0
 19 20  1  0  0  0  0
 20 21  2  0  0  0  0
 21 22  1  0  0  0  0
 22 23  2  0  0  0  0
 23 24  1  0  0  0  0
 23 25  1  0  0  0  0
 20 25  1  0  0  0  0
 18 26  1  0  0  0  0
 26 27  1  0  0  0  0
 15 27  1  0  0  0  0
 11 28  1  0  0  0  0
 28 29  2  0  0  0  0
  8 29  1  0  0  0  0
M  END
> <COMPOUND_ID>
MMV007625

$$$$

  Mrv0541 04191616472D          

 21 23  0  0  0  0            999 V2000
    4.0320    0.6909    0.0000 Cl  0  0  0  0  0  0  0  0  0  0  0  0
    4.5170    1.3583    0.0000 C   0  0  0  0  0  0  0  0  0  0  0  0
    4.1814    2.1120    0.0000 C   0  0  0  0  0  0  0  0  0  0  0  0
    4.6663    2.7794    0.0000 C   0  0  0  0  0  0  0  0  0  0  0  0
    5.4868    2.6932    0.0000 C   0  0  0  0  0  0  0  0  0  0  0  0
    5.8224    1.9395    0.0000 C   0  0  0  0  0  0  0  0  0  0  0  0
    5.3374    1.2721    0.0000 C   0  0  0  0  0  0  0  0  0  0  0  0
    5.6730    0.5184    0.0000 C   0  0  0  0  0  0  0  0  0  0  0  0
    5.1881   -0.1491    0.0000 S   0  0  0  0  0  0  0  0  0  0  0  0
    5.5236   -0.9027    0.0000 C   0  0  0  0  0  0  0  0  0  0  0  0
    5.0387   -1.5702    0.0000 C   0  0  0  0  0  0  0  0  0  0  0  0
    5.2936   -2.3548    0.0000 O   0  0  0  0  0  0  0  0  0  0  0  0
    4.6262   -2.8397    0.0000 C   0  0  0  0  0  0  0  0  0  0  0  0
    3.9588   -2.3548    0.0000 C   0  0  0  0  0  0  0  0  0  0  0  0
    4.2137   -1.5702    0.0000 C   0  0  0  0  0  0  0  0  0  0  0  0
    4.6262   -3.6647    0.0000 C   0  0  0  0  0  0  0  0  0  0  0  0
    3.9117   -4.0772    0.0000 O   0  0  0  0  0  0  0  0  0  0  0  0
    5.3407   -4.0772    0.0000 N   0  0  0  0  0  0  0  0  0  0  0  0
    5.3407   -4.9022    0.0000 C   0  0  0  0  0  0  0  0  0  0  0  0
    5.7532   -5.6167    0.0000 C   0  0  0  0  0  0  0  0  0  0  0  0
    4.9282   -5.6167    0.0000 C   0  0  0  0  0  0  0  0  0  0  0  0
  1  2  1  0  0  0  0
  2  3  2  0  0  0  0
  3  4  1  0  0  0  0
  4  5  2  0  0  0  0
  5  6  1  0  0  0  0
  6  7  2  0  0  0  0
  2  7  1  0  0  0  0
  7  8  1  0  0  0  0
  8  9  1  0  0  0  0
  9 10  1  0  0  0  0
 10 11  1  0  0  0  0
 11 12  1  0  0  0  0
 12 13  1  0  0  0  0
 13 14  2  0  0  0  0
 14 15  1  0  0  0  0
 11 15  2  0  0  0  0
 13 16  1  0  0  0  0
 16 17  2  0  0  0  0
 16 18  1  0  0  0  0
 18 19  1  0  0  0  0
 19 20  1  0  0  0  0
 20 21  1  0  0  0  0
 19 21  1  0  0  0  0
M  END
> <COMPOUND_ID>
MMV007803

$$$$

  Mrv0541 04191616472D          

 27 29  0  0  0  0            999 V2000
    0.0000   -4.9500    0.0000 C   0  0  0  0  0  0  0  0  0  0  0  0
    0.7145   -5.3625    0.0000 O   0  0  0  0  0  0  0  0  0  0  0  0
    0.7145   -6.1875    0.0000 C   0  0  0  0  0  0  0  0  0  0  0  0
    1.4289   -6.6000    0.0000 C   0  0  0  0  0  0  0  0  0  0  0  0
    1.4289   -7.4250    0.0000 C   0  0  0  0  0  0  0  0  0  0  0  0
    0.7145   -7.8375    0.0000 C   0  0  0  0  0  0  0  0  0  0  0  0
    0.7145   -8.6625    0.0000 C   0  0  0  0  0  0  0  0  0  0  0  0
    1.4289   -9.0750    0.0000 C   0  0  0  0  0  0  0  0  0  0  0  0
    1.4289   -9.9000    0.0000 N   0  0  0  0  0  0  0  0  0  0  0  0
    2.1434  -10.3125    0.0000 C   0  0  0  0  0  0  0  0  0  0  0  0
    2.1434  -11.1375    0.0000 C   0  0  0  0  0  0  0  0  0  0  0  0
    1.4289  -11.5500    0.0000 C   0  0  0  0  0  0  0  0  0  0  0  0
    0.7145  -11.1375    0.0000 C   0  0  0  0  0  0  0  0  0  0  0  0
    0.7145  -10.3125    0.0000 C   0  0  0  0  0  0  0  0  0  0  0  0
    1.4289  -12.3750    0.0000 N   0  0  0  0  0  0  0  0  0  0  0  0
    0.7145  -12.7875    0.0000 C   0  0  0  0  0  0  0  0  0  0  0  0
    0.7145  -13.6125    0.0000 C   0  0  0  0  0  0  0  0  0  0  0  0
    1.4289  -14.0250    0.0000 C   0  0  0  0  0  0  0  0  0  0  0  0
    1.4289  -14.8500    0.0000 C   0  0  0  0  0  0  0  0  0  0  0  0
    0.7145  -15.2625    0.0000 C   0  0  0  0  0  0  0  0  0  0  0  0
   -0.0000  -14.8500    0.0000 C   0  0  0  0  0  0  0  0  0  0  0  0
   -0.0000  -14.0250    0.0000 C   0  0  0  0  0  0  0  0  0  0  0  0
   -0.7145  -15.2625    0.0000 N   0  0  0  0  0  0  0  0  0  0  0  0
   -0.7145  -16.0875    0.0000 C   0  0  0  0  0  0  0  0  0  0  0  0
   -1.4289  -14.8500    0.0000 C   0  0  0  0  0  0  0  0  0  0  0  0
    0.0000   -7.4250    0.0000 C   0  0  0  0  0  0  0  0  0  0  0  0
    0.0000   -6.6000    0.0000 C   0  0  0  0  0  0  0  0  0  0  0  0
  1  2  1  0  0  0  0
  2  3  1  0  0  0  0
  3  4  2  0  0  0  0
  4  5  1  0  0  0  0
  5  6  2  0  0  0  0
  6  7  1  0  0  0  0
  7  8  1  0  0  0  0
  8  9  1  0  0  0  0
  9 10  1  0  0  0  0
 10 11  1  0  0  0  0
 11 12  1  0  0  0  0
 12 13  1  0  0  0  0
 13 14  1  0  0  0  0
  9 14  1  0  0  0  0
 12 15  1  0  0  0  0
 15 16  1  0  0  0  0
 16 17  1  0  0  0  0
 17 18  2  0  0  0  0
 18 19  1  0  0  0  0
 19 20  2  0  0  0  0
 20 21  1  0  0  0  0
 21 22  2  0  0  0  0
 17 22  1  0  0  0  0
 21 23  1  0  0  0  0
 23 24  1  0  0  0  0
 23 25  1  0  0  0  0
  6 26  1  0  0  0  0
 26 27  2  0  0  0  0
  3 27  1  0  0  0  0
M  END
> <COMPOUND_ID>
MMV011511

$$$$

  Mrv0541 04191616472D          

 23 25  0  0  0  0            999 V2000
   -2.8579    1.6500    0.0000 F   0  0  0  0  0  0  0  0  0  0  0  0
   -2.1434    1.2375    0.0000 C   0  0  0  0  0  0  0  0  0  0  0  0
   -2.5559    0.5230    0.0000 F   0  0  0  0  0  0  0  0  0  0  0  0
   -1.7309    1.9520    0.0000 F   0  0  0  0  0  0  0  0  0  0  0  0
   -1.4289    0.8250    0.0000 C   0  0  0  0  0  0  0  0  0  0  0  0
   -0.7145    1.2375    0.0000 C   0  0  0  0  0  0  0  0  0  0  0  0
    0.0000    0.8250    0.0000 N   0  0  0  0  0  0  0  0  0  0  0  0
    0.0000   -0.0000    0.0000 C   0  0  0  0  0  0  0  0  0  0  0  0
    0.7145   -0.4125    0.0000 S   0  0  0  0  0  0  0  0  0  0  0  0
    0.7145   -1.2375    0.0000 C   0  0  0  0  0  0  0  0  0  0  0  0
    1.3819   -1.7224    0.0000 O   0  0  0  0  0  0  0  0  0  0  0  0
    1.1270   -2.5070    0.0000 C   0  0  0  0  0  0  0  0  0  0  0  0
    0.3020   -2.5070    0.0000 N   0  0  0  0  0  0  0  0  0  0  0  0
    0.0470   -1.7224    0.0000 N   0  0  0  0  0  0  0  0  0  0  0  0
    1.6119   -3.1745    0.0000 C   0  0  0  0  0  0  0  0  0  0  0  0
    2.4324   -3.0882    0.0000 C   0  0  0  0  0  0  0  0  0  0  0  0
    2.9173   -3.7557    0.0000 C   0  0  0  0  0  0  0  0  0  0  0  0
    2.5817   -4.5094    0.0000 N   0  0  0  0  0  0  0  0  0  0  0  0
    1.7613   -4.5956    0.0000 C   0  0  0  0  0  0  0  0  0  0  0  0
    1.2763   -3.9282    0.0000 C   0  0  0  0  0  0  0  0  0  0  0  0
   -0.7145   -0.4125    0.0000 C   0  0  0  0  0  0  0  0  0  0  0  0
   -0.7145   -1.2375    0.0000 Cl  0  0  0  0  0  0  0  0  0  0  0  0
   -1.4289   -0.0000    0.0000 C   0  0  0  0  0  0  0  0  0  0  0  0
  1  2  1  0  0  0  0
  2  3  1  0  0  0  0
  2  4  1  0  0  0  0
  2  5  1  0  0  0  0
  5  6  2  0  0  0  0
  6  7  1  0  0  0  0
  7  8  2  0  0  0  0
  8  9  1  0  0  0  0
  9 10  1  0  0  0  0
 10 11  1  0  0  0  0
 11 12  1  0  0  0  0
 12 13  2  0  0  0  0
 13 14  1  0  0  0  0
 10 14  2  0  0  0  0
 12 15  1  0  0  0  0
 15 16  2  0  0  0  0
 16 17  1  0  0  0  0
 17 18  2  0  0  0  0
 18 19  1  0  0  0  0
 19 20  2  0  0  0  0
 15 20  1  0  0  0  0
  8 21  1  0  0  0  0
 21 22  1  0  0  0  0
 21 23  2  0  0  0  0
  5 23  1  0  0  0  0
M  END
> <COMPOUND_ID>
MMV011765

$$$$

  Mrv0541 04191616472D          

 28 31  0  0  0  0            999 V2000
   -0.5837   -4.2703    0.0000 C   0  0  0  0  0  0  0  0  0  0  0  0
   -1.4087   -4.2703    0.0000 C   0  0  0  0  0  0  0  0  0  0  0  0
   -1.8212   -3.5558    0.0000 O   0  0  0  0  0  0  0  0  0  0  0  0
   -2.6462   -3.5558    0.0000 C   0  0  0  0  0  0  0  0  0  0  0  0
   -3.0587   -4.2703    0.0000 C   0  0  0  0  0  0  0  0  0  0  0  0
   -3.8837   -4.2703    0.0000 C   0  0  0  0  0  0  0  0  0  0  0  0
   -4.2962   -3.5558    0.0000 C   0  0  0  0  0  0  0  0  0  0  0  0
   -3.8837   -2.8414    0.0000 C   0  0  0  0  0  0  0  0  0  0  0  0
   -3.0587   -2.8414    0.0000 C   0  0  0  0  0  0  0  0  0  0  0  0
   -2.6462   -2.1269    0.0000 C   0  0  0  0  0  0  0  0  0  0  0  0
   -3.0587   -1.4124    0.0000 O   0  0  0  0  0  0  0  0  0  0  0  0
   -1.8212   -2.1269    0.0000 N   0  0  0  0  0  0  0  0  0  0  0  0
   -1.4087   -1.4124    0.0000 C   0  0  0  0  0  0  0  0  0  0  0  0
   -1.8212   -0.6979    0.0000 C   0  0  0  0  0  0  0  0  0  0  0  0
   -1.4087    0.0165    0.0000 C   0  0  0  0  0  0  0  0  0  0  0  0
   -0.5837    0.0165    0.0000 C   0  0  0  0  0  0  0  0  0  0  0  0
   -0.1712   -0.6979    0.0000 C   0  0  0  0  0  0  0  0  0  0  0  0
   -0.5837   -1.4124    0.0000 C   0  0  0  0  0  0  0  0  0  0  0  0
    0.6538   -0.6979    0.0000 C   0  0  0  0  0  0  0  0  0  0  0  0
    1.1387   -0.0305    0.0000 N   0  0  0  0  0  0  0  0  0  0  0  0
    1.9233   -0.2854    0.0000 C   0  0  0  0  0  0  0  0  0  0  0  0
    2.6378    0.1271    0.0000 N   0  0  0  0  0  0  0  0  0  0  0  0
    3.3523   -0.2854    0.0000 C   0  0  0  0  0  0  0  0  0  0  0  0
    3.3523   -1.1104    0.0000 C   0  0  0  0  0  0  0  0  0  0  0  0
    2.6378   -1.5229    0.0000 C   0  0  0  0  0  0  0  0  0  0  0  0
    1.9233   -1.1104    0.0000 N   0  0  0  0  0  0  0  0  0  0  0  0
    1.1387   -1.3654    0.0000 C   0  0  0  0  0  0  0  0  0  0  0  0
    0.8838   -2.1500    0.0000 C   0  0  0  0  0  0  0  0  0  0  0  0
  1  2  1  0  0  0  0
  2  3  1  0  0  0  0
  3  4  1  0  0  0  0
  4  5  2  0  0  0  0
  5  6  1  0  0  0  0
  6  7  2  0  0  0  0
  7  8  1  0  0  0  0
  8  9  2  0  0  0  0
  4  9  1  0  0  0  0
  9 10  1  0  0  0  0
 10 11  2  0  0  0  0
 10 12  1  0  0  0  0
 12 13  1  0  0  0  0
 13 14  2  0  0  0  0
 14 15  1  0  0  0  0
 15 16  2  0  0  0  0
 16 17  1  0  0  0  0
 17 18  2  0  0  0  0
 13 18  1  0  0  0  0
 17 19  1  0  0  0  0
 19 20  1  0  0  0  0
 20 21  2  0  0  0  0
 21 22  1  0  0  0  0
 22 23  2  0  0  0  0
 23 24  1  0  0  0  0
 24 25  2  0  0  0  0
 25 26  1  0  0  0  0
 21 26  1  0  0  0  0
 26 27  1  0  0  0  0
 19 27  2  0  0  0  0
 27 28  1  0  0  0  0
M  END
> <COMPOUND_ID>
MMV019790

$$$$

  Mrv0541 04191616472D          

 26 28  0  0  0  0            999 V2000
    4.8946   -1.2991    0.0000 C   0  0  0  0  0  0  0  0  0  0  0  0
    4.1801   -1.7116    0.0000 C   0  0  0  0  0  0  0  0  0  0  0  0
    3.4656   -1.2991    0.0000 N   0  0  0  0  0  0  0  0  0  0  0  0
    3.4656   -0.4741    0.0000 C   0  0  0  0  0  0  0  0  0  0  0  0
    2.7512   -0.0616    0.0000 N   0  0  0  0  0  0  0  0  0  0  0  0
    2.7512    0.7634    0.0000 N   0  0  0  0  0  0  0  0  0  0  0  0
    3.4656    1.1759    0.0000 C   0  0  0  0  0  0  0  0  0  0  0  0
    4.1801    0.7634    0.0000 C   0  0  0  0  0  0  0  0  0  0  0  0
    4.1801   -0.0616    0.0000 N   0  0  0  0  0  0  0  0  0  0  0  0
    4.8946    1.1759    0.0000 C   0  0  0  0  0  0  0  0  0  0  0  0
    4.8946    2.0009    0.0000 C   0  0  0  0  0  0  0  0  0  0  0  0
    5.6091    2.4134    0.0000 C   0  0  0  0  0  0  0  0  0  0  0  0
    6.3235    2.0009    0.0000 C   0  0  0  0  0  0  0  0  0  0  0  0
    6.3235    1.1759    0.0000 C   0  0  0  0  0  0  0  0  0  0  0  0
    5.6091    0.7634    0.0000 C   0  0  0  0  0  0  0  0  0  0  0  0
    7.0380    2.4134    0.0000 C   0  0  0  0  0  0  0  0  0  0  0  0
    7.7525    2.8259    0.0000 F   0  0  0  0  0  0  0  0  0  0  0  0
    6.6255    3.1279    0.0000 F   0  0  0  0  0  0  0  0  0  0  0  0
    7.4505    1.6989    0.0000 F   0  0  0  0  0  0  0  0  0  0  0  0
    4.1801   -2.5366    0.0000 C   0  0  0  0  0  0  0  0  0  0  0  0
    4.8476   -3.0215    0.0000 C   0  0  0  0  0  0  0  0  0  0  0  0
    4.5926   -3.8062    0.0000 N   0  0  0  0  0  0  0  0  0  0  0  0
    5.0775   -4.4736    0.0000 C   0  0  0  0  0  0  0  0  0  0  0  0
    3.7676   -3.8062    0.0000 N   0  0  0  0  0  0  0  0  0  0  0  0
    3.5127   -3.0215    0.0000 C   0  0  0  0  0  0  0  0  0  0  0  0
    2.7281   -2.7666    0.0000 C   0  0  0  0  0  0  0  0  0  0  0  0
  1  2  1  0  0  0  0
  2  3  1  0  0  0  0
  3  4  1  0  0  0  0
  4  5  2  0  0  0  0
  5  6  1  0  0  0  0
  6  7  2  0  0  0  0
  7  8  1  0  0  0  0
  8  9  2  0  0  0  0
  4  9  1  0  0  0  0
  8 10  1  0  0  0  0
 10 11  2  0  0  0  0
 11 12  1  0  0  0  0
 12 13  2  0  0  0  0
 13 14  1  0  0  0  0
 14 15  2  0  0  0  0
 10 15  1  0  0  0  0
 13 16  1  0  0  0  0
 16 17  1  0  0  0  0
 16 18  1  0  0  0  0
 16 19  1  0  0  0  0
  2 20  1  0  0  0  0
 20 21  2  0  0  0  0
 21 22  1  0  0  0  0
 22 23  1  0  0  0  0
 22 24  1  0  0  0  0
 24 25  2  0  0  0  0
 20 25  1  0  0  0  0
 25 26  1  0  0  0  0
M  END
> <COMPOUND_ID>
MMV019993

$$$$

  Mrv0541 04191616472D          

 25 27  0  0  0  0            999 V2000
    4.2868   -1.6500    0.0000 C   0  0  0  0  0  0  0  0  0  0  0  0
    3.5724   -1.2375    0.0000 C   0  0  0  0  0  0  0  0  0  0  0  0
    2.8579   -1.6500    0.0000 N   0  0  0  0  0  0  0  0  0  0  0  0
    2.8579   -2.4750    0.0000 C   0  0  0  0  0  0  0  0  0  0  0  0
    3.5724   -2.8875    0.0000 C   0  0  0  0  0  0  0  0  0  0  0  0
    3.5724   -3.7125    0.0000 C   0  0  0  0  0  0  0  0  0  0  0  0
    4.2868   -4.1250    0.0000 Cl  0  0  0  0  0  0  0  0  0  0  0  0
    2.8579   -4.1250    0.0000 C   0  0  0  0  0  0  0  0  0  0  0  0
    2.1434   -3.7125    0.0000 C   0  0  0  0  0  0  0  0  0  0  0  0
    2.1434   -2.8875    0.0000 C   0  0  0  0  0  0  0  0  0  0  0  0
    1.4289   -2.4750    0.0000 N   0  0  0  0  0  0  0  0  0  0  0  0
    0.7145   -2.8875    0.0000 C   0  0  0  0  0  0  0  0  0  0  0  0
    0.0000   -2.4750    0.0000 C   0  0  0  0  0  0  0  0  0  0  0  0
    0.0000   -1.6500    0.0000 O   0  0  0  0  0  0  0  0  0  0  0  0
    0.7145   -1.2375    0.0000 C   0  0  0  0  0  0  0  0  0  0  0  0
    1.4289   -1.6500    0.0000 C   0  0  0  0  0  0  0  0  0  0  0  0
    3.5724   -0.4125    0.0000 C   0  0  0  0  0  0  0  0  0  0  0  0
    2.8579    0.0000    0.0000 O   0  0  0  0  0  0  0  0  0  0  0  0
    4.2868   -0.0000    0.0000 N   0  0  0  0  0  0  0  0  0  0  0  0
    4.2868    0.8250    0.0000 C   0  0  0  0  0  0  0  0  0  0  0  0
    5.0013    1.2375    0.0000 C   0  0  0  0  0  0  0  0  0  0  0  0
    5.7158    0.8250    0.0000 C   0  0  0  0  0  0  0  0  0  0  0  0
    5.7158   -0.0000    0.0000 C   0  0  0  0  0  0  0  0  0  0  0  0
    6.4302   -0.4125    0.0000 C   0  0  0  0  0  0  0  0  0  0  0  0
    5.0013   -0.4125    0.0000 C   0  0  0  0  0  0  0  0  0  0  0  0
  1  2  1  0  0  0  0
  2  3  1  0  0  0  0
  3  4  1  0  0  0  0
  4  5  2  0  0  0  0
  5  6  1  0  0  0  0
  6  7  1  0  0  0  0
  6  8  2  0  0  0  0
  8  9  1  0  0  0  0
  9 10  2  0  0  0  0
  4 10  1  0  0  0  0
 10 11  1  0  0  0  0
 11 12  1  0  0  0  0
 12 13  1  0  0  0  0
 13 14  1  0  0  0  0
 14 15  1  0  0  0  0
 15 16  1  0  0  0  0
 11 16  1  0  0  0  0
  2 17  1  0  0  0  0
 17 18  2  0  0  0  0
 17 19  1  0  0  0  0
 19 20  1  0  0  0  0
 20 21  1  0  0  0  0
 21 22  1  0  0  0  0
 22 23  1  0  0  0  0
 23 24  1  0  0  0  0
 23 25  1  0  0  0  0
 19 25  1  0  0  0  0
M  END
> <COMPOUND_ID>
MMV020388

$$$$

  Mrv0541 04191616472D          

 29 32  0  0  0  0            999 V2000
    2.8579   -1.6500    0.0000 C   0  0  0  0  0  0  0  0  0  0  0  0
    2.1434   -2.0625    0.0000 O   0  0  0  0  0  0  0  0  0  0  0  0
    1.4289   -1.6500    0.0000 C   0  0  0  0  0  0  0  0  0  0  0  0
    0.7145   -2.0625    0.0000 C   0  0  0  0  0  0  0  0  0  0  0  0
    0.0000   -1.6500    0.0000 C   0  0  0  0  0  0  0  0  0  0  0  0
    0.0000   -0.8250    0.0000 C   0  0  0  0  0  0  0  0  0  0  0  0
    0.7145   -0.4125    0.0000 C   0  0  0  0  0  0  0  0  0  0  0  0
    1.4289   -0.8250    0.0000 C   0  0  0  0  0  0  0  0  0  0  0  0
   -0.7145   -0.4125    0.0000 C   0  0  0  0  0  0  0  0  0  0  0  0
   -1.4289   -0.8250    0.0000 C   0  0  0  0  0  0  0  0  0  0  0  0
   -2.1434   -0.4125    0.0000 N   0  0  0  0  0  0  0  0  0  0  0  0
   -2.1434    0.4125    0.0000 C   0  0  0  0  0  0  0  0  0  0  0  0
   -1.4289    0.8250    0.0000 C   0  0  0  0  0  0  0  0  0  0  0  0
   -1.4289    1.6500    0.0000 C   0  0  0  0  0  0  0  0  0  0  0  0
   -0.7145    2.0625    0.0000 C   0  0  0  0  0  0  0  0  0  0  0  0
    0.0000    1.6500    0.0000 C   0  0  0  0  0  0  0  0  0  0  0  0
    0.0000    0.8250    0.0000 N   0  0  0  0  0  0  0  0  0  0  0  0
   -0.7145    0.4125    0.0000 C   0  0  0  0  0  0  0  0  0  0  0  0
    0.7145    2.0625    0.0000 C   0  0  0  0  0  0  0  0  0  0  0  0
    0.7145    2.8875    0.0000 O   0  0  0  0  0  0  0  0  0  0  0  0
    1.4289    1.6500    0.0000 N   0  0  0  0  0  0  0  0  0  0  0  0
    2.1434    2.0625    0.0000 C   0  0  0  0  0  0  0  0  0  0  0  0
    2.8579    1.6500    0.0000 C   0  0  0  0  0  0  0  0  0  0  0  0
    3.5724    2.0625    0.0000 C   0  0  0  0  0  0  0  0  0  0  0  0
    4.2868    1.6500    0.0000 N   0  0  0  0  0  0  0  0  0  0  0  0
    5.0405    1.9856    0.0000 C   0  0  0  0  0  0  0  0  0  0  0  0
    5.5925    1.3725    0.0000 C   0  0  0  0  0  0  0  0  0  0  0  0
    5.1800    0.6580    0.0000 N   0  0  0  0  0  0  0  0  0  0  0  0
    4.3731    0.8295    0.0000 C   0  0  0  0  0  0  0  0  0  0  0  0
  1  2  1  0  0  0  0
  2  3  1  0  0  0  0
  3  4  2  0  0  0  0
  4  5  1  0  0  0  0
  5  6  2  0  0  0  0
  6  7  1  0  0  0  0
  7  8  2  0  0  0  0
  3  8  1  0  0  0  0
  6  9  1  0  0  0  0
  9 10  1  0  0  0  0
 10 11  2  0  0  0  0
 11 12  1  0  0  0  0
 12 13  2  0  0  0  0
 13 14  1  0  0  0  0
 14 15  2  0  0  0  0
 15 16  1  0  0  0  0
 16 17  2  0  0  0  0
 17 18  1  0  0  0  0
  9 18  2  0  0  0  0
 13 18  1  0  0  0  0
 16 19  1  0  0  0  0
 19 20  2  0  0  0  0
 19 21  1  0  0  0  0
 21 22  1  0  0  0  0
 22 23  1  0  0  0  0
 23 24  1  0  0  0  0
 24 25  1  0  0  0  0
 25 26  1  0  0  0  0
 26 27  2  0  0  0  0
 27 28  1  0  0  0  0
 28 29  2  0  0  0  0
 25 29  1  0  0  0  0
M  END
> <COMPOUND_ID>
MMV020670

$$$$

  Mrv0541 04191616472D          

 30 32  0  0  0  0            999 V2000
    5.7158   -2.4750    0.0000 C   0  0  0  0  0  0  0  0  0  0  0  0
    5.0013   -2.8875    0.0000 O   0  0  0  0  0  0  0  0  0  0  0  0
    4.2868   -2.4750    0.0000 C   0  0  0  0  0  0  0  0  0  0  0  0
    3.5724   -2.8875    0.0000 C   0  0  0  0  0  0  0  0  0  0  0  0
    2.8579   -2.4750    0.0000 C   0  0  0  0  0  0  0  0  0  0  0  0
    2.1434   -2.8875    0.0000 O   0  0  0  0  0  0  0  0  0  0  0  0
    2.8579   -1.6500    0.0000 O   0  0  0  0  0  0  0  0  0  0  0  0
    2.1434   -1.2375    0.0000 C   0  0  0  0  0  0  0  0  0  0  0  0
    3.5724   -3.7125    0.0000 C   0  0  0  0  0  0  0  0  0  0  0  0
    2.8579   -4.1250    0.0000 C   0  0  0  0  0  0  0  0  0  0  0  0
    2.8579   -4.9500    0.0000 C   0  0  0  0  0  0  0  0  0  0  0  0
    3.5724   -5.3625    0.0000 C   0  0  0  0  0  0  0  0  0  0  0  0
    4.2868   -4.9500    0.0000 C   0  0  0  0  0  0  0  0  0  0  0  0
    4.2868   -4.1250    0.0000 C   0  0  0  0  0  0  0  0  0  0  0  0
    5.0013   -3.7125    0.0000 O   0  0  0  0  0  0  0  0  0  0  0  0
    5.7158   -4.1250    0.0000 C   0  0  0  0  0  0  0  0  0  0  0  0
    6.4302   -3.7125    0.0000 C   0  0  0  0  0  0  0  0  0  0  0  0
    7.1447   -4.1250    0.0000 C   0  0  0  0  0  0  0  0  0  0  0  0
    7.8592   -3.7125    0.0000 O   0  0  0  0  0  0  0  0  0  0  0  0
    8.5737   -4.1250    0.0000 C   0  0  0  0  0  0  0  0  0  0  0  0
    9.2881   -3.7125    0.0000 C   0  0  0  0  0  0  0  0  0  0  0  0
   10.0026   -4.1250    0.0000 C   0  0  0  0  0  0  0  0  0  0  0  0
   10.0026   -4.9500    0.0000 C   0  0  0  0  0  0  0  0  0  0  0  0
    9.2881   -5.3625    0.0000 C   0  0  0  0  0  0  0  0  0  0  0  0
    8.5737   -4.9500    0.0000 C   0  0  0  0  0  0  0  0  0  0  0  0
    7.8592   -5.3625    0.0000 C   0  0  0  0  0  0  0  0  0  0  0  0
    7.1447   -5.7750    0.0000 N   0  0  0  0  0  0  0  0  0  0  0  0
    7.1447   -4.9500    0.0000 N   0  0  0  0  0  0  0  0  0  0  0  0
    6.4302   -5.3625    0.0000 C   0  0  0  0  0  0  0  0  0  0  0  0
    5.7158   -4.9500    0.0000 N   0  0  0  0  0  0  0  0  0  0  0  0
  1  2  1  0  0  0  0
  2  3  1  0  0  0  0
  3  4  2  0  0  0  0
  4  5  1  0  0  0  0
  5  6  2  0  0  0  0
  5  7  1  0  0  0  0
  7  8  1  0  0  0  0
  4  9  1  0  0  0  0
  9 10  2  0  0  0  0
 10 11  1  0  0  0  0
 11 12  2  0  0  0  0
 12 13  1  0  0  0  0
 13 14  2  0  0  0  0
  9 14  1  0  0  0  0
 14 15  1  0  0  0  0
 15 16  1  0  0  0  0
 16 17  2  0  0  0  0
 17 18  1  0  0  0  0
 18 19  1  0  0  0  0
 19 20  1  0  0  0  0
 20 21  2  0  0  0  0
 21 22  1  0  0  0  0
 22 23  2  0  0  0  0
 23 24  1  0  0  0  0
 24 25  2  0  0  0  0
 20 25  1  0  0  0  0
 25 26  1  0  0  0  0
 26 27  3  0  0  0  0
 18 28  2  0  0  0  0
 28 29  1  0  0  0  0
 29 30  2  0  0  0  0
 16 30  1  0  0  0  0
M  END
> <COMPOUND_ID>
MMV021057

$$$$

  Mrv0541 04191616472D          

 18 20  0  0  0  0            999 V2000
   -0.1712   -2.1269    0.0000 N   0  0  0  0  0  0  0  0  0  0  0  0
   -0.5837   -1.4124    0.0000 C   0  0  0  0  0  0  0  0  0  0  0  0
   -1.4087   -1.4124    0.0000 N   0  0  0  0  0  0  0  0  0  0  0  0
   -1.8212   -0.6979    0.0000 C   0  0  0  0  0  0  0  0  0  0  0  0
   -1.4087    0.0165    0.0000 C   0  0  0  0  0  0  0  0  0  0  0  0
   -1.8212    0.7310    0.0000 Br  0  0  0  0  0  0  0  0  0  0  0  0
   -0.5837    0.0165    0.0000 C   0  0  0  0  0  0  0  0  0  0  0  0
   -0.1712   -0.6979    0.0000 C   0  0  0  0  0  0  0  0  0  0  0  0
    0.6538   -0.6979    0.0000 C   0  0  0  0  0  0  0  0  0  0  0  0
    1.1387   -0.0305    0.0000 N   0  0  0  0  0  0  0  0  0  0  0  0
    1.9233   -0.2854    0.0000 C   0  0  0  0  0  0  0  0  0  0  0  0
    2.6378    0.1271    0.0000 C   0  0  0  0  0  0  0  0  0  0  0  0
    3.3523   -0.2854    0.0000 C   0  0  0  0  0  0  0  0  0  0  0  0
    4.0668    0.1271    0.0000 Cl  0  0  0  0  0  0  0  0  0  0  0  0
    3.3523   -1.1104    0.0000 C   0  0  0  0  0  0  0  0  0  0  0  0
    2.6378   -1.5229    0.0000 N   0  0  0  0  0  0  0  0  0  0  0  0
    1.9233   -1.1104    0.0000 C   0  0  0  0  0  0  0  0  0  0  0  0
    1.1387   -1.3654    0.0000 N   0  0  0  0  0  0  0  0  0  0  0  0
  1  2  1  0  0  0  0
  2  3  2  0  0  0  0
  3  4  1  0  0  0  0
  4  5  2  0  0  0  0
  5  6  1  0  0  0  0
  5  7  1  0  0  0  0
  7  8  2  0  0  0  0
  2  8  1  0  0  0  0
  8  9  1  0  0  0  0
  9 10  2  0  0  0  0
 10 11  1  0  0  0  0
 11 12  2  0  0  0  0
 12 13  1  0  0  0  0
 13 14  1  0  0  0  0
 13 15  2  0  0  0  0
 15 16  1  0  0  0  0
 16 17  2  0  0  0  0
 11 17  1  0  0  0  0
 17 18  1  0  0  0  0
  9 18  1  0  0  0  0
M  END
> <COMPOUND_ID>
MMV676358

$$$$

  Mrv0541 04191616472D          

 30 35  0  0  0  0            999 V2000
    1.1965   -2.2051    0.0000 C   0  0  0  0  0  0  0  0  0  0  0  0
    0.4759   -2.6069    0.0000 C   0  0  0  0  0  0  0  0  0  0  0  0
    0.0527   -3.3151    0.0000 C   0  0  0  0  0  0  0  0  0  0  0  0
   -0.3490   -2.5945    0.0000 C   0  0  0  0  0  0  0  0  0  0  0  0
    1.2088   -1.3802    0.0000 N   0  0  0  0  0  0  0  0  0  0  0  0
    0.4709   -1.0111    0.0000 C   0  0  0  0  0  0  0  0  0  0  0  0
    0.2994   -0.2042    0.0000 C   0  0  0  0  0  0  0  0  0  0  0  0
   -0.5144   -0.0690    0.0000 C   0  0  0  0  0  0  0  0  0  0  0  0
   -0.8043    0.7034    0.0000 C   0  0  0  0  0  0  0  0  0  0  0  0
   -0.2804    1.3406    0.0000 C   0  0  0  0  0  0  0  0  0  0  0  0
    0.5335    1.2055    0.0000 C   0  0  0  0  0  0  0  0  0  0  0  0
    0.8234    0.4331    0.0000 C   0  0  0  0  0  0  0  0  0  0  0  0
    1.6483    0.4207    0.0000 O   0  0  0  0  0  0  0  0  0  0  0  0
    2.1530   -0.2319    0.0000 C   0  0  0  0  0  0  0  0  0  0  0  0
    2.4079    0.5527    0.0000 C   0  0  0  0  0  0  0  0  0  0  0  0
    3.2149    0.7242    0.0000 C   0  0  0  0  0  0  0  0  0  0  0  0
    3.7669    0.1111    0.0000 N   0  0  0  0  0  0  0  0  0  0  0  0
    4.5739    0.2827    0.0000 C   0  0  0  0  0  0  0  0  0  0  0  0
    4.8288    1.0673    0.0000 C   0  0  0  0  0  0  0  0  0  0  0  0
    4.3439    1.7347    0.0000 C   0  0  0  0  0  0  0  0  0  0  0  0
    4.8288    2.4022    0.0000 N   0  0  0  0  0  0  0  0  0  0  0  0
    5.6134    2.1472    0.0000 C   0  0  0  0  0  0  0  0  0  0  0  0
    6.3279    2.5597    0.0000 C   0  0  0  0  0  0  0  0  0  0  0  0
    7.0424    2.1472    0.0000 N   0  0  0  0  0  0  0  0  0  0  0  0
    7.0424    1.3222    0.0000 C   0  0  0  0  0  0  0  0  0  0  0  0
    6.3279    0.9097    0.0000 C   0  0  0  0  0  0  0  0  0  0  0  0
    5.6134    1.3222    0.0000 C   0  0  0  0  0  0  0  0  0  0  0  0
    3.5120   -0.6735    0.0000 C   0  0  0  0  0  0  0  0  0  0  0  0
    2.7050   -0.8450    0.0000 C   0  0  0  0  0  0  0  0  0  0  0  0
    1.9574   -1.0334    0.0000 C   0  0  0  0  0  0  0  0  0  0  0  0
  1  2  1  0  0  0  0
  2  3  1  0  0  0  0
  3  4  1  0  0  0  0
  2  4  1  0  0  0  0
  1  5  1  0  0  0  0
  5  6  1  0  0  0  0
  6  7  1  0  0  0  0
  7  8  2  0  0  0  0
  8  9  1  0  0  0  0
  9 10  2  0  0  0  0
 10 11  1  0  0  0  0
 11 12  2  0  0  0  0
  7 12  1  0  0  0  0
 12 13  1  0  0  0  0
 13 14  1  0  0  0  0
 14 15  1  0  0  0  0
 15 16  1  0  0  0  0
 16 17  1  0  0  0  0
 17 18  1  0  0  0  0
 18 19  1  0  0  0  0
 19 20  2  0  0  0  0
 20 21  1  0  0  0  0
 21 22  1  0  0  0  0
 22 23  2  0  0  0  0
 23 24  1  0  0  0  0
 24 25  2  0  0  0  0
 25 26  1  0  0  0  0
 26 27  2  0  0  0  0
 19 27  1  0  0  0  0
 22 27  1  0  0  0  0
 17 28  1  0  0  0  0
 28 29  1  0  0  0  0
 14 29  1  0  0  0  0
 14 30  1  0  0  0  0
  5 30  1  0  0  0  0
M  END
> <COMPOUND_ID>
MMV023183

$$$$

  Mrv0541 04191616472D          

 23 24  0  0  0  0            999 V2000
   -2.8579   -2.4750    0.0000 C   0  0  0  0  0  0  0  0  0  0  0  0
   -2.1434   -2.8875    0.0000 C   0  0  0  0  0  0  0  0  0  0  0  0
   -1.4289   -2.4750    0.0000 C   0  0  0  0  0  0  0  0  0  0  0  0
   -1.4289   -1.6500    0.0000 C   0  0  0  0  0  0  0  0  0  0  0  0
   -0.7145   -1.2375    0.0000 C   0  0  0  0  0  0  0  0  0  0  0  0
   -0.7145   -0.4125    0.0000 O   0  0  0  0  0  0  0  0  0  0  0  0
    0.0000   -1.6500    0.0000 N   0  0  0  0  0  0  0  0  0  0  0  0
    0.7145   -1.2375    0.0000 C   0  0  0  0  0  0  0  0  0  0  0  0
    0.0000   -2.4750    0.0000 C   0  0  0  0  0  0  0  0  0  0  0  0
   -0.7145   -2.8875    0.0000 N   0  0  0  0  0  0  0  0  0  0  0  0
    0.7145   -2.8875    0.0000 S   0  0  0  0  0  0  0  0  0  0  0  0
    1.4289   -2.4750    0.0000 C   0  0  0  0  0  0  0  0  0  0  0  0
    1.4289   -1.6500    0.0000 C   0  0  0  0  0  0  0  0  0  0  0  0
    2.1434   -2.8875    0.0000 C   0  0  0  0  0  0  0  0  0  0  0  0
    2.1434   -3.7125    0.0000 O   0  0  0  0  0  0  0  0  0  0  0  0
    2.8579   -2.4750    0.0000 N   0  0  0  0  0  0  0  0  0  0  0  0
    3.5724   -2.8875    0.0000 C   0  0  0  0  0  0  0  0  0  0  0  0
    4.2868   -2.4750    0.0000 C   0  0  0  0  0  0  0  0  0  0  0  0
    5.0013   -2.8875    0.0000 C   0  0  0  0  0  0  0  0  0  0  0  0
    5.0013   -3.7125    0.0000 C   0  0  0  0  0  0  0  0  0  0  0  0
    5.7158   -4.1250    0.0000 F   0  0  0  0  0  0  0  0  0  0  0  0
    4.2868   -4.1250    0.0000 C   0  0  0  0  0  0  0  0  0  0  0  0
    3.5724   -3.7125    0.0000 C   0  0  0  0  0  0  0  0  0  0  0  0
  1  2  1  0  0  0  0
  2  3  1  0  0  0  0
  3  4  2  0  0  0  0
  4  5  1  0  0  0  0
  5  6  2  0  0  0  0
  5  7  1  0  0  0  0
  7  8  1  0  0  0  0
  7  9  1  0  0  0  0
  9 10  2  0  0  0  0
  3 10  1  0  0  0  0
  9 11  1  0  0  0  0
 11 12  1  0  0  0  0
 12 13  1  0  0  0  0
 12 14  1  0  0  0  0
 14 15  2  0  0  0  0
 14 16  1  0  0  0  0
 16 17  1  0  0  0  0
 17 18  2  0  0  0  0
 18 19  1  0  0  0  0
 19 20  2  0  0  0  0
 20 21  1  0  0  0  0
 20 22  1  0  0  0  0
 22 23  2  0  0  0  0
 17 23  1  0  0  0  0
M  END
> <COMPOUND_ID>
MMV688980

$$$$

  Mrv0541 04191616472D          

 21 23  0  0  0  0            999 V2000
    4.7079    3.7125    0.0000 C   0  0  0  0  0  0  0  0  0  0  0  0
    3.9934    3.3000    0.0000 C   0  0  0  0  0  0  0  0  0  0  0  0
    3.2789    3.7125    0.0000 C   0  0  0  0  0  0  0  0  0  0  0  0
    3.9934    2.4750    0.0000 C   0  0  0  0  0  0  0  0  0  0  0  0
    3.2789    2.0625    0.0000 N   0  0  0  0  0  0  0  0  0  0  0  0
    3.2789    1.2375    0.0000 C   0  0  0  0  0  0  0  0  0  0  0  0
    3.9934    0.8250    0.0000 C   0  0  0  0  0  0  0  0  0  0  0  0
    3.9934    0.0000    0.0000 C   0  0  0  0  0  0  0  0  0  0  0  0
    3.2789   -0.4125    0.0000 N   0  0  0  0  0  0  0  0  0  0  0  0
    2.5645    0.0000    0.0000 C   0  0  0  0  0  0  0  0  0  0  0  0
    1.7798   -0.2549    0.0000 C   0  0  0  0  0  0  0  0  0  0  0  0
    1.2949    0.4125    0.0000 N   0  0  0  0  0  0  0  0  0  0  0  0
    1.7798    1.0799    0.0000 N   0  0  0  0  0  0  0  0  0  0  0  0
    2.5645    0.8250    0.0000 C   0  0  0  0  0  0  0  0  0  0  0  0
    1.5249   -1.0396    0.0000 C   0  0  0  0  0  0  0  0  0  0  0  0
    2.0769   -1.6527    0.0000 C   0  0  0  0  0  0  0  0  0  0  0  0
    1.8220   -2.4373    0.0000 C   0  0  0  0  0  0  0  0  0  0  0  0
    1.0150   -2.6088    0.0000 C   0  0  0  0  0  0  0  0  0  0  0  0
    0.4630   -1.9957    0.0000 C   0  0  0  0  0  0  0  0  0  0  0  0
    0.7179   -1.2111    0.0000 C   0  0  0  0  0  0  0  0  0  0  0  0
    4.7079   -0.4125    0.0000 C   0  0  0  0  0  0  0  0  0  0  0  0
  1  2  1  0  0  0  0
  2  3  1  0  0  0  0
  2  4  1  0  0  0  0
  4  5  1  0  0  0  0
  5  6  1  0  0  0  0
  6  7  2  0  0  0  0
  7  8  1  0  0  0  0
  8  9  2  0  0  0  0
  9 10  1  0  0  0  0
 10 11  2  0  0  0  0
 11 12  1  0  0  0  0
 12 13  1  0  0  0  0
 13 14  2  0  0  0  0
  6 14  1  0  0  0  0
 10 14  1  0  0  0  0
 11 15  1  0  0  0  0
 15 16  2  0  0  0  0
 16 17  1  0  0  0  0
 17 18  2  0  0  0  0
 18 19  1  0  0  0  0
 19 20  2  0  0  0  0
 15 20  1  0  0  0  0
  8 21  1  0  0  0  0
M  END
> <COMPOUND_ID>
MMV021375

$$$$

  Mrv0541 04191616472D          

 29 33  0  0  0  0            999 V2000
   -0.7145   -1.2375    0.0000 O   0  0  0  0  0  0  0  0  0  0  0  0
    0.0000   -1.6500    0.0000 C   0  0  0  0  0  0  0  0  0  0  0  0
    0.0000   -2.4750    0.0000 C   0  0  0  0  0  0  0  0  0  0  0  0
    0.7145   -2.8875    0.0000 C   0  0  0  0  0  0  0  0  0  0  0  0
    0.7145   -3.7125    0.0000 C   0  0  0  0  0  0  0  0  0  0  0  0
    0.0000   -4.1250    0.0000 N   0  0  0  0  0  0  0  0  0  0  0  0
   -0.7145   -3.7125    0.0000 C   0  0  0  0  0  0  0  0  0  0  0  0
   -0.7145   -2.8875    0.0000 C   0  0  0  0  0  0  0  0  0  0  0  0
    0.0000   -4.9500    0.0000 C   0  0  0  0  0  0  0  0  0  0  0  0
    0.6674   -5.4349    0.0000 N   0  0  0  0  0  0  0  0  0  0  0  0
    0.4125   -6.2195    0.0000 N   0  0  0  0  0  0  0  0  0  0  0  0
   -0.4125   -6.2195    0.0000 N   0  0  0  0  0  0  0  0  0  0  0  0
   -0.6674   -5.4349    0.0000 N   0  0  0  0  0  0  0  0  0  0  0  0
   -1.4521   -5.1800    0.0000 C   0  0  0  0  0  0  0  0  0  0  0  0
   -2.0652   -5.7320    0.0000 C   0  0  0  0  0  0  0  0  0  0  0  0
   -2.8498   -5.4771    0.0000 C   0  0  0  0  0  0  0  0  0  0  0  0
   -3.0213   -4.6701    0.0000 C   0  0  0  0  0  0  0  0  0  0  0  0
   -2.4082   -4.1181    0.0000 C   0  0  0  0  0  0  0  0  0  0  0  0
   -1.6236   -4.3730    0.0000 C   0  0  0  0  0  0  0  0  0  0  0  0
    0.7145   -1.2375    0.0000 N   0  0  0  0  0  0  0  0  0  0  0  0
    0.7145   -0.4125    0.0000 C   0  0  0  0  0  0  0  0  0  0  0  0
    1.4289    0.0000    0.0000 C   0  0  0  0  0  0  0  0  0  0  0  0
    2.1434   -0.4125    0.0000 C   0  0  0  0  0  0  0  0  0  0  0  0
    2.8579    0.0000    0.0000 C   0  0  0  0  0  0  0  0  0  0  0  0
    3.5724   -0.4125    0.0000 C   0  0  0  0  0  0  0  0  0  0  0  0
    3.5724   -1.2375    0.0000 C   0  0  0  0  0  0  0  0  0  0  0  0
    2.8579   -1.6500    0.0000 C   0  0  0  0  0  0  0  0  0  0  0  0
    2.1434   -1.2375    0.0000 C   0  0  0  0  0  0  0  0  0  0  0  0
    1.4289   -1.6500    0.0000 C   0  0  0  0  0  0  0  0  0  0  0  0
  1  2  2  0  0  0  0
  2  3  1  0  0  0  0
  3  4  1  0  0  0  0
  4  5  1  0  0  0  0
  5  6  1  0  0  0  0
  6  7  1  0  0  0  0
  7  8  1  0  0  0  0
  3  8  1  0  0  0  0
  6  9  1  0  0  0  0
  9 10  2  0  0  0  0
 10 11  1  0  0  0  0
 11 12  2  0  0  0  0
 12 13  1  0  0  0  0
  9 13  1  0  0  0  0
 13 14  1  0  0  0  0
 14 15  2  0  0  0  0
 15 16  1  0  0  0  0
 16 17  2  0  0  0  0
 17 18  1  0  0  0  0
 18 19  2  0  0  0  0
 14 19  1  0  0  0  0
  2 20  1  0  0  0  0
 20 21  1  0  0  0  0
 21 22  1  0  0  0  0
 22 23  1  0  0  0  0
 23 24  2  0  0  0  0
 24 25  1  0  0  0  0
 25 26  2  0  0  0  0
 26 27  1  0  0  0  0
 27 28  2  0  0  0  0
 23 28  1  0  0  0  0
 28 29  1  0  0  0  0
 20 29  1  0  0  0  0
M  END
> <COMPOUND_ID>
MMV009135

$$$$

  Mrv0541 04191616472D          

 22 24  0  0  0  0            999 V2000
    3.8990    7.3418    0.0000 C   0  0  0  0  0  0  0  0  0  0  0  0
    3.4343    6.6601    0.0000 N   0  0  0  0  0  0  0  0  0  0  0  0
    3.8468    5.9457    0.0000 C   0  0  0  0  0  0  0  0  0  0  0  0
    3.5454    5.1777    0.0000 C   0  0  0  0  0  0  0  0  0  0  0  0
    2.7570    4.9345    0.0000 C   0  0  0  0  0  0  0  0  0  0  0  0
    2.0754    5.3993    0.0000 N   0  0  0  0  0  0  0  0  0  0  0  0
    2.0137    6.2219    0.0000 C   0  0  0  0  0  0  0  0  0  0  0  0
    2.6185    6.7831    0.0000 C   0  0  0  0  0  0  0  0  0  0  0  0
    1.3609    4.9868    0.0000 C   0  0  0  0  0  0  0  0  0  0  0  0
    1.3609    4.1618    0.0000 C   0  0  0  0  0  0  0  0  0  0  0  0
    2.0754    3.7493    0.0000 C   0  0  0  0  0  0  0  0  0  0  0  0
    2.0754    2.9243    0.0000 C   0  0  0  0  0  0  0  0  0  0  0  0
    1.3609    2.5118    0.0000 C   0  0  0  0  0  0  0  0  0  0  0  0
    0.6464    2.9243    0.0000 C   0  0  0  0  0  0  0  0  0  0  0  0
    0.6464    3.7493    0.0000 C   0  0  0  0  0  0  0  0  0  0  0  0
    0.6464    5.3993    0.0000 C   0  0  0  0  0  0  0  0  0  0  0  0
   -0.0680    4.9868    0.0000 C   0  0  0  0  0  0  0  0  0  0  0  0
   -0.7825    5.3993    0.0000 C   0  0  0  0  0  0  0  0  0  0  0  0
   -0.7825    6.2243    0.0000 C   0  0  0  0  0  0  0  0  0  0  0  0
   -1.4970    6.6368    0.0000 Cl  0  0  0  0  0  0  0  0  0  0  0  0
   -0.0680    6.6368    0.0000 C   0  0  0  0  0  0  0  0  0  0  0  0
    0.6464    6.2243    0.0000 C   0  0  0  0  0  0  0  0  0  0  0  0
  1  2  1  0  0  0  0
  2  3  1  0  0  0  0
  3  4  1  0  0  0  0
  4  5  1  0  0  0  0
  5  6  1  0  0  0  0
  6  7  1  0  0  0  0
  7  8  1  0  0  0  0
  2  8  1  0  0  0  0
  6  9  1  0  0  0  0
  9 10  1  0  0  0  0
 10 11  2  0  0  0  0
 11 12  1  0  0  0  0
 12 13  2  0  0  0  0
 13 14  1  0  0  0  0
 14 15  2  0  0  0  0
 10 15  1  0  0  0  0
  9 16  1  0  0  0  0
 16 17  2  0  0  0  0
 17 18  1  0  0  0  0
 18 19  2  0  0  0  0
 19 20  1  0  0  0  0
 19 21  1  0  0  0  0
 21 22  2  0  0  0  0
 16 22  1  0  0  0  0
M  END
> <COMPOUND_ID>
MMV004168

$$$$

  Mrv0541 04191616472D          

 17 18  0  0  0  0            999 V2000
    2.1434    1.2375    0.0000 C   0  0  0  0  0  0  0  0  0  0  0  0
    1.4289    0.8250    0.0000 C   0  0  0  0  0  0  0  0  0  0  0  0
    1.4289   -0.0000    0.0000 O   0  0  0  0  0  0  0  0  0  0  0  0
    0.7145   -0.4125    0.0000 C   0  0  0  0  0  0  0  0  0  0  0  0
    0.0000   -0.0000    0.0000 O   0  0  0  0  0  0  0  0  0  0  0  0
    0.7145   -1.2375    0.0000 C   0  0  0  0  0  0  0  0  0  0  0  0
    1.3819   -1.7224    0.0000 N   0  0  0  0  0  0  0  0  0  0  0  0
    1.1270   -2.5070    0.0000 O   0  0  0  0  0  0  0  0  0  0  0  0
    0.3020   -2.5070    0.0000 C   0  0  0  0  0  0  0  0  0  0  0  0
   -0.1830   -3.1745    0.0000 N   0  0  0  0  0  0  0  0  0  0  0  0
    0.0470   -1.7224    0.0000 C   0  0  0  0  0  0  0  0  0  0  0  0
   -0.7376   -1.4675    0.0000 C   0  0  0  0  0  0  0  0  0  0  0  0
   -1.3507   -2.0195    0.0000 C   0  0  0  0  0  0  0  0  0  0  0  0
   -2.1353   -1.7646    0.0000 C   0  0  0  0  0  0  0  0  0  0  0  0
   -2.3068   -0.9576    0.0000 C   0  0  0  0  0  0  0  0  0  0  0  0
   -1.6937   -0.4056    0.0000 C   0  0  0  0  0  0  0  0  0  0  0  0
   -0.9091   -0.6605    0.0000 C   0  0  0  0  0  0  0  0  0  0  0  0
  1  2  1  0  0  0  0
  2  3  1  0  0  0  0
  3  4  1  0  0  0  0
  4  5  2  0  0  0  0
  4  6  1  0  0  0  0
  6  7  2  0  0  0  0
  7  8  1  0  0  0  0
  8  9  1  0  0  0  0
  9 10  1  0  0  0  0
  9 11  2  0  0  0  0
  6 11  1  0  0  0  0
 11 12  1  0  0  0  0
 12 13  2  0  0  0  0
 13 14  1  0  0  0  0
 14 15  2  0  0  0  0
 15 16  1  0  0  0  0
 16 17  2  0  0  0  0
 12 17  1  0  0  0  0
M  END
> <COMPOUND_ID>
MMV1236379

$$$$

  Mrv0541 04191616472D          

 23 25  0  0  0  0            999 V2000
   -1.4087    0.0165    0.0000 C   0  0  0  0  0  0  0  0  0  0  0  0
   -0.5837    0.0165    0.0000 N   0  0  0  0  0  0  0  0  0  0  0  0
   -0.1712   -0.6979    0.0000 C   0  0  0  0  0  0  0  0  0  0  0  0
   -0.5837   -1.4124    0.0000 O   0  0  0  0  0  0  0  0  0  0  0  0
    0.6538   -0.6979    0.0000 C   0  0  0  0  0  0  0  0  0  0  0  0
    1.1387   -0.0305    0.0000 C   0  0  0  0  0  0  0  0  0  0  0  0
    1.9233   -0.2854    0.0000 C   0  0  0  0  0  0  0  0  0  0  0  0
    2.6378    0.1271    0.0000 C   0  0  0  0  0  0  0  0  0  0  0  0
    3.3523   -0.2854    0.0000 C   0  0  0  0  0  0  0  0  0  0  0  0
    3.3523   -1.1104    0.0000 C   0  0  0  0  0  0  0  0  0  0  0  0
    2.6378   -1.5229    0.0000 C   0  0  0  0  0  0  0  0  0  0  0  0
    1.9233   -1.1104    0.0000 C   0  0  0  0  0  0  0  0  0  0  0  0
    1.1387   -1.3654    0.0000 N   0  0  0  0  0  0  0  0  0  0  0  0
    0.8838   -2.1500    0.0000 C   0  0  0  0  0  0  0  0  0  0  0  0
    0.0768   -2.3215    0.0000 O   0  0  0  0  0  0  0  0  0  0  0  0
    1.4358   -2.7631    0.0000 C   0  0  0  0  0  0  0  0  0  0  0  0
    1.1809   -3.5477    0.0000 C   0  0  0  0  0  0  0  0  0  0  0  0
    1.7329   -4.1608    0.0000 C   0  0  0  0  0  0  0  0  0  0  0  0
    1.4780   -4.9454    0.0000 C   0  0  0  0  0  0  0  0  0  0  0  0
    0.6710   -5.1170    0.0000 C   0  0  0  0  0  0  0  0  0  0  0  0
    0.4161   -5.9016    0.0000 F   0  0  0  0  0  0  0  0  0  0  0  0
    0.1190   -4.5039    0.0000 C   0  0  0  0  0  0  0  0  0  0  0  0
    0.3739   -3.7192    0.0000 C   0  0  0  0  0  0  0  0  0  0  0  0
  1  2  1  0  0  0  0
  2  3  1  0  0  0  0
  3  4  2  0  0  0  0
  3  5  1  0  0  0  0
  5  6  1  0  0  0  0
  6  7  1  0  0  0  0
  7  8  2  0  0  0  0
  8  9  1  0  0  0  0
  9 10  2  0  0  0  0
 10 11  1  0  0  0  0
 11 12  2  0  0  0  0
  7 12  1  0  0  0  0
 12 13  1  0  0  0  0
  5 13  1  0  0  0  0
 13 14  1  0  0  0  0
 14 15  2  0  0  0  0
 14 16  1  0  0  0  0
 16 17  1  0  0  0  0
 17 18  2  0  0  0  0
 18 19  1  0  0  0  0
 19 20  2  0  0  0  0
 20 21  1  0  0  0  0
 20 22  1  0  0  0  0
 22 23  2  0  0  0  0
 17 23  1  0  0  0  0
M  END
> <COMPOUND_ID>
MMV188296

$$$$

  Mrv0541 04191616472D          

 20 21  0  0  0  0            999 V2000
    0.0000    2.4750    0.0000 C   0  0  0  0  0  0  0  0  0  0  0  0
   -0.7145    2.0625    0.0000 C   0  0  0  0  0  0  0  0  0  0  0  0
   -0.7145    1.2375    0.0000 C   0  0  0  0  0  0  0  0  0  0  0  0
    0.0000    0.8250    0.0000 O   0  0  0  0  0  0  0  0  0  0  0  0
   -1.4289    0.8250    0.0000 N   0  0  0  0  0  0  0  0  0  0  0  0
   -1.4289    0.0000    0.0000 C   0  0  0  0  0  0  0  0  0  0  0  0
   -0.7145   -0.4125    0.0000 C   0  0  0  0  0  0  0  0  0  0  0  0
   -0.7145   -1.2375    0.0000 C   0  0  0  0  0  0  0  0  0  0  0  0
   -1.4289   -1.6500    0.0000 C   0  0  0  0  0  0  0  0  0  0  0  0
   -2.1434   -1.2375    0.0000 C   0  0  0  0  0  0  0  0  0  0  0  0
   -2.1434   -0.4125    0.0000 C   0  0  0  0  0  0  0  0  0  0  0  0
   -2.8579    0.0000    0.0000 C   0  0  0  0  0  0  0  0  0  0  0  0
   -2.8579    0.8250    0.0000 O   0  0  0  0  0  0  0  0  0  0  0  0
   -3.5724   -0.4125    0.0000 N   0  0  0  0  0  0  0  0  0  0  0  0
   -3.5724   -1.2375    0.0000 C   0  0  0  0  0  0  0  0  0  0  0  0
   -2.8579   -1.6500    0.0000 C   0  0  0  0  0  0  0  0  0  0  0  0
   -2.8579   -2.4750    0.0000 C   0  0  0  0  0  0  0  0  0  0  0  0
   -3.5724   -2.8875    0.0000 C   0  0  0  0  0  0  0  0  0  0  0  0
   -4.2868   -2.4750    0.0000 C   0  0  0  0  0  0  0  0  0  0  0  0
   -4.2868   -1.6500    0.0000 N   0  0  0  0  0  0  0  0  0  0  0  0
  1  2  1  0  0  0  0
  2  3  1  0  0  0  0
  3  4  2  0  0  0  0
  3  5  1  0  0  0  0
  5  6  1  0  0  0  0
  6  7  2  0  0  0  0
  7  8  1  0  0  0  0
  8  9  2  0  0  0  0
  9 10  1  0  0  0  0
 10 11  2  0  0  0  0
  6 11  1  0  0  0  0
 11 12  1  0  0  0  0
 12 13  2  0  0  0  0
 12 14  1  0  0  0  0
 14 15  1  0  0  0  0
 15 16  2  0  0  0  0
 16 17  1  0  0  0  0
 17 18  2  0  0  0  0
 18 19  1  0  0  0  0
 19 20  2  0  0  0  0
 15 20  1  0  0  0  0
M  END
> <COMPOUND_ID>
MMV202553

$$$$

  Mrv0541 04191616472D          

 23 25  0  0  0  0            999 V2000
    0.8838   -2.1500    0.0000 O   0  0  0  0  0  0  0  0  0  0  0  0
    1.1387   -1.3654    0.0000 B   0  0  0  0  0  0  0  0  0  0  0  0
    0.6538   -0.6979    0.0000 O   0  0  0  0  0  0  0  0  0  0  0  0
    1.1387   -0.0305    0.0000 C   0  0  0  0  0  0  0  0  0  0  0  0
    1.9233   -0.2854    0.0000 C   0  0  0  0  0  0  0  0  0  0  0  0
    2.6378    0.1271    0.0000 C   0  0  0  0  0  0  0  0  0  0  0  0
    3.3523   -0.2854    0.0000 C   0  0  0  0  0  0  0  0  0  0  0  0
    3.3523   -1.1104    0.0000 C   0  0  0  0  0  0  0  0  0  0  0  0
    4.0668   -1.5229    0.0000 N   0  0  0  0  0  0  0  0  0  0  0  0
    4.7812   -1.1104    0.0000 C   0  0  0  0  0  0  0  0  0  0  0  0
    4.7812   -0.2854    0.0000 O   0  0  0  0  0  0  0  0  0  0  0  0
    5.4957   -1.5229    0.0000 C   0  0  0  0  0  0  0  0  0  0  0  0
    6.2102   -1.1104    0.0000 C   0  0  0  0  0  0  0  0  0  0  0  0
    6.9246   -1.5229    0.0000 C   0  0  0  0  0  0  0  0  0  0  0  0
    6.9246   -2.3479    0.0000 C   0  0  0  0  0  0  0  0  0  0  0  0
    6.2102   -2.7604    0.0000 C   0  0  0  0  0  0  0  0  0  0  0  0
    5.4957   -2.3479    0.0000 C   0  0  0  0  0  0  0  0  0  0  0  0
    4.7812   -2.7604    0.0000 C   0  0  0  0  0  0  0  0  0  0  0  0
    4.0668   -3.1729    0.0000 F   0  0  0  0  0  0  0  0  0  0  0  0
    4.3687   -2.0460    0.0000 F   0  0  0  0  0  0  0  0  0  0  0  0
    5.1937   -3.4749    0.0000 F   0  0  0  0  0  0  0  0  0  0  0  0
    2.6378   -1.5229    0.0000 C   0  0  0  0  0  0  0  0  0  0  0  0
    1.9233   -1.1104    0.0000 C   0  0  0  0  0  0  0  0  0  0  0  0
  1  2  1  0  0  0  0
  2  3  1  0  0  0  0
  3  4  1  0  0  0  0
  4  5  1  0  0  0  0
  5  6  2  0  0  0  0
  6  7  1  0  0  0  0
  7  8  2  0  0  0  0
  8  9  1  0  0  0  0
  9 10  1  0  0  0  0
 10 11  2  0  0  0  0
 10 12  1  0  0  0  0
 12 13  2  0  0  0  0
 13 14  1  0  0  0  0
 14 15  2  0  0  0  0
 15 16  1  0  0  0  0
 16 17  2  0  0  0  0
 12 17  1  0  0  0  0
 17 18  1  0  0  0  0
 18 19  1  0  0  0  0
 18 20  1  0  0  0  0
 18 21  1  0  0  0  0
  8 22  1  0  0  0  0
 22 23  2  0  0  0  0
  2 23  1  0  0  0  0
  5 23  1  0  0  0  0
M  END
> <COMPOUND_ID>
MMV652003

$$$$

  Mrv0541 04191616472D          

 25 27  0  0  0  0            999 V2000
   -0.7145   -1.2375    0.0000 C   0  0  0  0  0  0  0  0  0  0  0  0
   -0.7145   -0.4125    0.0000 O   0  0  0  0  0  0  0  0  0  0  0  0
    0.0000   -0.0000    0.0000 C   0  0  0  0  0  0  0  0  0  0  0  0
    0.0000    0.8250    0.0000 C   0  0  0  0  0  0  0  0  0  0  0  0
    0.7145    1.2375    0.0000 C   0  0  0  0  0  0  0  0  0  0  0  0
    1.4289    0.8250    0.0000 C   0  0  0  0  0  0  0  0  0  0  0  0
    1.4289   -0.0000    0.0000 C   0  0  0  0  0  0  0  0  0  0  0  0
    0.7145   -0.4125    0.0000 C   0  0  0  0  0  0  0  0  0  0  0  0
    0.7145   -1.2375    0.0000 C   0  0  0  0  0  0  0  0  0  0  0  0
    1.3819   -1.7224    0.0000 C   0  0  0  0  0  0  0  0  0  0  0  0
    1.1270   -2.5070    0.0000 N   0  0  0  0  0  0  0  0  0  0  0  0
    0.3020   -2.5070    0.0000 N   0  0  0  0  0  0  0  0  0  0  0  0
    0.0470   -1.7224    0.0000 N   0  0  0  0  0  0  0  0  0  0  0  0
    1.6119   -3.1745    0.0000 C   0  0  0  0  0  0  0  0  0  0  0  0
    2.4324   -3.0882    0.0000 C   0  0  0  0  0  0  0  0  0  0  0  0
    2.9173   -3.7557    0.0000 C   0  0  0  0  0  0  0  0  0  0  0  0
    2.5817   -4.5094    0.0000 C   0  0  0  0  0  0  0  0  0  0  0  0
    1.7613   -4.5956    0.0000 C   0  0  0  0  0  0  0  0  0  0  0  0
    1.2763   -3.9282    0.0000 C   0  0  0  0  0  0  0  0  0  0  0  0
    3.0667   -5.1768    0.0000 C   0  0  0  0  0  0  0  0  0  0  0  0
    2.7311   -5.9305    0.0000 N   0  0  0  0  0  0  0  0  0  0  0  0
    3.8871   -5.0906    0.0000 N   0  0  0  0  0  0  0  0  0  0  0  0
    2.1434    1.2375    0.0000 C   0  0  0  0  0  0  0  0  0  0  0  0
    2.1434    2.0625    0.0000 N   0  0  0  0  0  0  0  0  0  0  0  0
    2.8579    0.8250    0.0000 N   0  0  0  0  0  0  0  0  0  0  0  0
  1  2  1  0  0  0  0
  2  3  1  0  0  0  0
  3  4  2  0  0  0  0
  4  5  1  0  0  0  0
  5  6  2  0  0  0  0
  6  7  1  0  0  0  0
  7  8  2  0  0  0  0
  3  8  1  0  0  0  0
  8  9  1  0  0  0  0
  9 10  2  0  0  0  0
 10 11  1  0  0  0  0
 11 12  1  0  0  0  0
 12 13  2  0  0  0  0
  9 13  1  0  0  0  0
 11 14  1  0  0  0  0
 14 15  2  0  0  0  0
 15 16  1  0  0  0  0
 16 17  2  0  0  0  0
 17 18  1  0  0  0  0
 18 19  2  0  0  0  0
 14 19  1  0  0  0  0
 17 20  1  0  0  0  0
 20 21  2  0  0  0  0
 20 22  1  0  0  0  0
  6 23  1  0  0  0  0
 23 24  2  0  0  0  0
 23 25  1  0  0  0  0
M  END
> <COMPOUND_ID>
MMV675998

$$$$

  Mrv0541 04191616472D          

 24 26  0  0  0  0            999 V2000
   -1.4289   -2.4750    0.0000 C   0  0  0  0  0  0  0  0  0  0  0  0
   -0.7145   -2.8875    0.0000 N   0  0  0  0  0  0  0  0  0  0  0  0
   -0.7145   -3.7125    0.0000 C   0  0  0  0  0  0  0  0  0  0  0  0
   -1.4289   -4.1250    0.0000 C   0  0  0  0  0  0  0  0  0  0  0  0
   -1.4289   -4.9500    0.0000 C   0  0  0  0  0  0  0  0  0  0  0  0
   -0.7145   -5.3625    0.0000 C   0  0  0  0  0  0  0  0  0  0  0  0
   -0.7145   -6.1875    0.0000 C   0  0  0  0  0  0  0  0  0  0  0  0
   -1.4289   -6.6000    0.0000 C   0  0  0  0  0  0  0  0  0  0  0  0
   -2.1434   -6.1875    0.0000 C   0  0  0  0  0  0  0  0  0  0  0  0
   -2.1434   -5.3625    0.0000 C   0  0  0  0  0  0  0  0  0  0  0  0
    0.0000   -2.4750    0.0000 C   0  0  0  0  0  0  0  0  0  0  0  0
    0.0000   -1.6500    0.0000 N   0  0  0  0  0  0  0  0  0  0  0  0
    0.7145   -1.2375    0.0000 C   0  0  0  0  0  0  0  0  0  0  0  0
    1.4289   -1.6500    0.0000 N   0  0  0  0  0  0  0  0  0  0  0  0
    1.4289   -2.4750    0.0000 C   0  0  0  0  0  0  0  0  0  0  0  0
    2.1434   -2.8875    0.0000 C   0  0  0  0  0  0  0  0  0  0  0  0
    0.7145   -2.8875    0.0000 C   0  0  0  0  0  0  0  0  0  0  0  0
    0.7145   -3.7125    0.0000 Cl  0  0  0  0  0  0  0  0  0  0  0  0
    0.7145   -0.4125    0.0000 C   0  0  0  0  0  0  0  0  0  0  0  0
    0.0000   -0.0000    0.0000 C   0  0  0  0  0  0  0  0  0  0  0  0
    0.0000    0.8250    0.0000 C   0  0  0  0  0  0  0  0  0  0  0  0
    0.7145    1.2375    0.0000 C   0  0  0  0  0  0  0  0  0  0  0  0
    1.4289    0.8250    0.0000 C   0  0  0  0  0  0  0  0  0  0  0  0
    1.4289   -0.0000    0.0000 N   0  0  0  0  0  0  0  0  0  0  0  0
  1  2  1  0  0  0  0
  2  3  1  0  0  0  0
  3  4  1  0  0  0  0
  4  5  1  0  0  0  0
  5  6  2  0  0  0  0
  6  7  1  0  0  0  0
  7  8  2  0  0  0  0
  8  9  1  0  0  0  0
  9 10  2  0  0  0  0
  5 10  1  0  0  0  0
  2 11  1  0  0  0  0
 11 12  2  0  0  0  0
 12 13  1  0  0  0  0
 13 14  2  0  0  0  0
 14 15  1  0  0  0  0
 15 16  1  0  0  0  0
 15 17  2  0  0  0  0
 11 17  1  0  0  0  0
 17 18  1  0  0  0  0
 13 19  1  0  0  0  0
 19 20  2  0  0  0  0
 20 21  1  0  0  0  0
 21 22  2  0  0  0  0
 22 23  1  0  0  0  0
 23 24  2  0  0  0  0
 19 24  1  0  0  0  0
M  END
> <COMPOUND_ID>
MMV658988

$$$$

  Mrv0541 04191616472D          

 26 29  0  0  0  0            999 V2000
    1.3222   -0.0616    0.0000 C   0  0  0  0  0  0  0  0  0  0  0  0
    2.0367   -0.4741    0.0000 C   0  0  0  0  0  0  0  0  0  0  0  0
    2.7512   -0.0616    0.0000 N   0  0  0  0  0  0  0  0  0  0  0  0
    3.4656   -0.4741    0.0000 C   0  0  0  0  0  0  0  0  0  0  0  0
    3.4656   -1.2991    0.0000 N   0  0  0  0  0  0  0  0  0  0  0  0
    2.7512   -1.7116    0.0000 C   0  0  0  0  0  0  0  0  0  0  0  0
    2.7512   -2.5366    0.0000 N   0  0  0  0  0  0  0  0  0  0  0  0
    3.4186   -3.0215    0.0000 C   0  0  0  0  0  0  0  0  0  0  0  0
    3.1637   -3.8062    0.0000 C   0  0  0  0  0  0  0  0  0  0  0  0
    2.3387   -3.8062    0.0000 C   0  0  0  0  0  0  0  0  0  0  0  0
    1.8538   -4.4736    0.0000 C   0  0  0  0  0  0  0  0  0  0  0  0
    2.1893   -5.2273    0.0000 C   0  0  0  0  0  0  0  0  0  0  0  0
    3.0098   -5.3135    0.0000 C   0  0  0  0  0  0  0  0  0  0  0  0
    3.3454   -6.0672    0.0000 C   0  0  0  0  0  0  0  0  0  0  0  0
    2.8604   -6.7346    0.0000 C   0  0  0  0  0  0  0  0  0  0  0  0
    2.0399   -6.6484    0.0000 C   0  0  0  0  0  0  0  0  0  0  0  0
    1.7044   -5.8947    0.0000 C   0  0  0  0  0  0  0  0  0  0  0  0
    2.0837   -3.0215    0.0000 C   0  0  0  0  0  0  0  0  0  0  0  0
    2.0367   -1.2991    0.0000 C   0  0  0  0  0  0  0  0  0  0  0  0
    1.3222   -1.7116    0.0000 Cl  0  0  0  0  0  0  0  0  0  0  0  0
    4.1801   -0.0616    0.0000 C   0  0  0  0  0  0  0  0  0  0  0  0
    4.1801    0.7634    0.0000 C   0  0  0  0  0  0  0  0  0  0  0  0
    4.8946    1.1759    0.0000 C   0  0  0  0  0  0  0  0  0  0  0  0
    5.6091    0.7634    0.0000 C   0  0  0  0  0  0  0  0  0  0  0  0
    5.6091   -0.0616    0.0000 C   0  0  0  0  0  0  0  0  0  0  0  0
    4.8946   -0.4741    0.0000 N   0  0  0  0  0  0  0  0  0  0  0  0
  1  2  1  0  0  0  0
  2  3  2  0  0  0  0
  3  4  1  0  0  0  0
  4  5  2  0  0  0  0
  5  6  1  0  0  0  0
  6  7  1  0  0  0  0
  7  8  1  0  0  0  0
  8  9  1  0  0  0  0
  9 10  1  0  0  0  0
 10 11  1  0  0  0  0
 11 12  1  0  0  0  0
 12 13  2  0  0  0  0
 13 14  1  0  0  0  0
 14 15  2  0  0  0  0
 15 16  1  0  0  0  0
 16 17  2  0  0  0  0
 12 17  1  0  0  0  0
 10 18  1  0  0  0  0
  7 18  1  0  0  0  0
  6 19  2  0  0  0  0
  2 19  1  0  0  0  0
 19 20  1  0  0  0  0
  4 21  1  0  0  0  0
 21 22  2  0  0  0  0
 22 23  1  0  0  0  0
 23 24  2  0  0  0  0
 24 25  1  0  0  0  0
 25 26  2  0  0  0  0
 21 26  1  0  0  0  0
M  END
> <COMPOUND_ID>
MMV659004

$$$$

  Mrv0541 04191616472D          

 33 37  0  0  0  0            999 V2000
    3.9934    2.4750    0.0000 O   0  0  0  0  0  0  0  0  0  0  0  0
    3.2789    2.0625    0.0000 C   0  0  0  0  0  0  0  0  0  0  0  0
    2.5645    2.4750    0.0000 O   0  0  0  0  0  0  0  0  0  0  0  0
    3.2789    1.2375    0.0000 C   0  0  0  0  0  0  0  0  0  0  0  0
    3.9934    0.8250    0.0000 C   0  0  0  0  0  0  0  0  0  0  0  0
    3.9934    0.0000    0.0000 C   0  0  0  0  0  0  0  0  0  0  0  0
    3.2789   -0.4125    0.0000 C   0  0  0  0  0  0  0  0  0  0  0  0
    2.5645    0.0000    0.0000 C   0  0  0  0  0  0  0  0  0  0  0  0
    1.7798   -0.2549    0.0000 O   0  0  0  0  0  0  0  0  0  0  0  0
    1.2949    0.4125    0.0000 C   0  0  0  0  0  0  0  0  0  0  0  0
    1.7798    1.0799    0.0000 N   0  0  0  0  0  0  0  0  0  0  0  0
    2.5645    0.8250    0.0000 C   0  0  0  0  0  0  0  0  0  0  0  0
    0.4699    0.4125    0.0000 C   0  0  0  0  0  0  0  0  0  0  0  0
    0.0574   -0.3020    0.0000 C   0  0  0  0  0  0  0  0  0  0  0  0
   -0.7676   -0.3020    0.0000 C   0  0  0  0  0  0  0  0  0  0  0  0
   -1.1801    0.4125    0.0000 C   0  0  0  0  0  0  0  0  0  0  0  0
   -0.7676    1.1270    0.0000 C   0  0  0  0  0  0  0  0  0  0  0  0
   -1.1801    1.8414    0.0000 O   0  0  0  0  0  0  0  0  0  0  0  0
    0.0574    1.1270    0.0000 C   0  0  0  0  0  0  0  0  0  0  0  0
    0.4699    1.8414    0.0000 N   0  0  0  0  0  0  0  0  0  0  0  0
    0.0574    2.5559    0.0000 C   0  0  0  0  0  0  0  0  0  0  0  0
   -0.7676    2.5559    0.0000 O   0  0  0  0  0  0  0  0  0  0  0  0
    0.4699    3.2704    0.0000 C   0  0  0  0  0  0  0  0  0  0  0  0
    0.1344    4.0241    0.0000 C   0  0  0  0  0  0  0  0  0  0  0  0
    0.7474    4.5761    0.0000 C   0  0  0  0  0  0  0  0  0  0  0  0
    1.4619    4.1636    0.0000 O   0  0  0  0  0  0  0  0  0  0  0  0
    1.2904    3.3566    0.0000 N   0  0  0  0  0  0  0  0  0  0  0  0
    0.6612    5.3966    0.0000 C   0  0  0  0  0  0  0  0  0  0  0  0
   -0.0925    5.7321    0.0000 C   0  0  0  0  0  0  0  0  0  0  0  0
   -0.1787    6.5526    0.0000 C   0  0  0  0  0  0  0  0  0  0  0  0
    0.4887    7.0375    0.0000 C   0  0  0  0  0  0  0  0  0  0  0  0
    1.2424    6.7020    0.0000 C   0  0  0  0  0  0  0  0  0  0  0  0
    1.3287    5.8815    0.0000 C   0  0  0  0  0  0  0  0  0  0  0  0
  1  2  1  0  0  0  0
  2  3  2  0  0  0  0
  2  4  1  0  0  0  0
  4  5  1  0  0  0  0
  5  6  2  0  0  0  0
  6  7  1  0  0  0  0
  7  8  2  0  0  0  0
  8  9  1  0  0  0  0
  9 10  1  0  0  0  0
 10 11  2  0  0  0  0
 11 12  1  0  0  0  0
  4 12  2  0  0  0  0
  8 12  1  0  0  0  0
 10 13  1  0  0  0  0
 13 14  2  0  0  0  0
 14 15  1  0  0  0  0
 15 16  2  0  0  0  0
 16 17  1  0  0  0  0
 17 18  1  0  0  0  0
 17 19  2  0  0  0  0
 13 19  1  0  0  0  0
 19 20  1  0  0  0  0
 20 21  1  0  0  0  0
 21 22  2  0  0  0  0
 21 23  1  0  0  0  0
 23 24  1  0  0  0  0
 24 25  2  0  0  0  0
 25 26  1  0  0  0  0
 26 27  1  0  0  0  0
 23 27  2  0  0  0  0
 25 28  1  0  0  0  0
 28 29  2  0  0  0  0
 29 30  1  0  0  0  0
 30 31  2  0  0  0  0
 31 32  1  0  0  0  0
 32 33  2  0  0  0  0
 28 33  1  0  0  0  0
M  END
> <COMPOUND_ID>
MMV676008

$$$$

  Mrv0541 04191616472D          

 21 23  0  0  1  0            999 V2000
   -0.8212   -1.2991    0.0000 Cl  0  0  0  0  0  0  0  0  0  0  0  0
   -0.8212   -0.4741    0.0000 C   0  0  0  0  0  0  0  0  0  0  0  0
   -1.5356   -0.0616    0.0000 C   0  0  0  0  0  0  0  0  0  0  0  0
   -1.5356    0.7634    0.0000 C   0  0  0  0  0  0  0  0  0  0  0  0
   -0.8212    1.1759    0.0000 C   0  0  0  0  0  0  0  0  0  0  0  0
   -0.8212    2.0009    0.0000 Cl  0  0  0  0  0  0  0  0  0  0  0  0
   -0.1067    0.7634    0.0000 C   0  0  0  0  0  0  0  0  0  0  0  0
    0.6078    1.1759    0.0000 C   0  0  0  0  0  0  0  0  0  0  0  0
    1.3222    0.7634    0.0000 O   0  0  0  0  0  0  0  0  0  0  0  0
    2.0367    1.1759    0.0000 C   0  0  1  0  0  0  0  0  0  0  0  0
    2.0367    2.0009    0.0000 C   0  0  0  0  0  0  0  0  0  0  0  0
    2.7512    2.4134    0.0000 C   0  0  0  0  0  0  0  0  0  0  0  0
    3.4656    2.0009    0.0000 C   0  0  0  0  0  0  0  0  0  0  0  0
    3.4656    1.1759    0.0000 C   0  0  0  0  0  0  0  0  0  0  0  0
    2.7512    0.7634    0.0000 C   0  0  2  0  0  0  0  0  0  0  0  0
    2.7512   -0.0616    0.0000 N   0  0  0  0  0  0  0  0  0  0  0  0
    3.4186   -0.5465    0.0000 C   0  0  0  0  0  0  0  0  0  0  0  0
    3.1637   -1.3312    0.0000 C   0  0  0  0  0  0  0  0  0  0  0  0
    2.3387   -1.3312    0.0000 N   0  0  0  0  0  0  0  0  0  0  0  0
    2.0837   -0.5465    0.0000 C   0  0  0  0  0  0  0  0  0  0  0  0
   -0.1067   -0.0616    0.0000 C   0  0  0  0  0  0  0  0  0  0  0  0
  1  2  1  0  0  0  0
  2  3  2  0  0  0  0
  3  4  1  0  0  0  0
  4  5  2  0  0  0  0
  5  6  1  0  0  0  0
  5  7  1  0  0  0  0
  7  8  1  0  0  0  0
  8  9  1  0  0  0  0
 10  9  1  1  0  0  0
 10 11  1  0  0  0  0
 11 12  1  0  0  0  0
 12 13  1  0  0  0  0
 13 14  1  0  0  0  0
 14 15  1  0  0  0  0
 10 15  1  0  0  0  0
 15 16  1  6  0  0  0
 16 17  1  0  0  0  0
 17 18  2  0  0  0  0
 18 19  1  0  0  0  0
 19 20  2  0  0  0  0
 16 20  1  0  0  0  0
  7 21  2  0  0  0  0
  2 21  1  0  0  0  0
M  END
> <COMPOUND_ID>
MMV676048

$$$$

  Mrv0541 04191616472D          

 24 27  0  0  0  0            999 V2000
    4.8946   -0.4741    0.0000 C   0  0  0  0  0  0  0  0  0  0  0  0
    4.8946   -1.2991    0.0000 C   0  0  0  0  0  0  0  0  0  0  0  0
    4.1801   -1.7116    0.0000 N   0  0  0  0  0  0  0  0  0  0  0  0
    3.4656   -1.2991    0.0000 C   0  0  0  0  0  0  0  0  0  0  0  0
    3.4656   -0.4741    0.0000 C   0  0  0  0  0  0  0  0  0  0  0  0
    4.1801   -0.0616    0.0000 O   0  0  0  0  0  0  0  0  0  0  0  0
    4.1801   -2.5366    0.0000 C   0  0  0  0  0  0  0  0  0  0  0  0
    4.8476   -3.0215    0.0000 C   0  0  0  0  0  0  0  0  0  0  0  0
    4.5926   -3.8062    0.0000 C   0  0  0  0  0  0  0  0  0  0  0  0
    3.7676   -3.8062    0.0000 N   0  0  0  0  0  0  0  0  0  0  0  0
    3.5127   -3.0215    0.0000 N   0  0  0  0  0  0  0  0  0  0  0  0
    5.0775   -4.4736    0.0000 C   0  0  0  0  0  0  0  0  0  0  0  0
    5.8980   -4.3874    0.0000 C   0  0  0  0  0  0  0  0  0  0  0  0
    6.3829   -5.0548    0.0000 C   0  0  0  0  0  0  0  0  0  0  0  0
    6.0474   -5.8085    0.0000 C   0  0  0  0  0  0  0  0  0  0  0  0
    6.5323   -6.4759    0.0000 O   0  0  0  0  0  0  0  0  0  0  0  0
    6.1968   -7.2296    0.0000 C   0  0  0  0  0  0  0  0  0  0  0  0
    6.6817   -7.8970    0.0000 C   0  0  0  0  0  0  0  0  0  0  0  0
    6.3461   -8.6507    0.0000 C   0  0  0  0  0  0  0  0  0  0  0  0
    5.5256   -8.7369    0.0000 C   0  0  0  0  0  0  0  0  0  0  0  0
    5.0407   -8.0695    0.0000 C   0  0  0  0  0  0  0  0  0  0  0  0
    5.3763   -7.3158    0.0000 C   0  0  0  0  0  0  0  0  0  0  0  0
    5.2269   -5.8947    0.0000 C   0  0  0  0  0  0  0  0  0  0  0  0
    4.7420   -5.2273    0.0000 C   0  0  0  0  0  0  0  0  0  0  0  0
  1  2  1  0  0  0  0
  2  3  1  0  0  0  0
  3  4  1  0  0  0  0
  4  5  1  0  0  0  0
  5  6  1  0  0  0  0
  1  6  1  0  0  0  0
  3  7  1  0  0  0  0
  7  8  2  0  0  0  0
  8  9  1  0  0  0  0
  9 10  2  0  0  0  0
 10 11  1  0  0  0  0
  7 11  1  0  0  0  0
  9 12  1  0  0  0  0
 12 13  2  0  0  0  0
 13 14  1  0  0  0  0
 14 15  2  0  0  0  0
 15 16  1  0  0  0  0
 16 17  1  0  0  0  0
 17 18  2  0  0  0  0
 18 19  1  0  0  0  0
 19 20  2  0  0  0  0
 20 21  1  0  0  0  0
 21 22  2  0  0  0  0
 17 22  1  0  0  0  0
 15 23  1  0  0  0  0
 23 24  2  0  0  0  0
 12 24  1  0  0  0  0
M  END
> <COMPOUND_ID>
MMV045105

$$$$

  Mrv0541 04191616472D          

 31 34  0  0  0  0            999 V2000
    3.4656    2.8259    0.0000 C   0  0  0  0  0  0  0  0  0  0  0  0
    3.4656    2.0009    0.0000 C   0  0  0  0  0  0  0  0  0  0  0  0
    2.6406    2.0009    0.0000 C   0  0  0  0  0  0  0  0  0  0  0  0
    4.2906    2.0009    0.0000 C   0  0  0  0  0  0  0  0  0  0  0  0
    3.4656    1.1759    0.0000 O   0  0  0  0  0  0  0  0  0  0  0  0
    4.1801    0.7634    0.0000 C   0  0  0  0  0  0  0  0  0  0  0  0
    4.8946    1.1759    0.0000 O   0  0  0  0  0  0  0  0  0  0  0  0
    4.1801   -0.0616    0.0000 N   0  0  0  0  0  0  0  0  0  0  0  0
    4.8946   -0.4741    0.0000 C   0  0  0  0  0  0  0  0  0  0  0  0
    4.8946   -1.2991    0.0000 C   0  0  0  0  0  0  0  0  0  0  0  0
    4.1801   -1.7116    0.0000 N   0  0  0  0  0  0  0  0  0  0  0  0
    3.4656   -1.2991    0.0000 C   0  0  0  0  0  0  0  0  0  0  0  0
    3.4656   -0.4741    0.0000 C   0  0  0  0  0  0  0  0  0  0  0  0
    4.1801   -2.5366    0.0000 C   0  0  0  0  0  0  0  0  0  0  0  0
    4.8476   -3.0215    0.0000 C   0  0  0  0  0  0  0  0  0  0  0  0
    4.5926   -3.8062    0.0000 C   0  0  0  0  0  0  0  0  0  0  0  0
    3.7676   -3.8062    0.0000 N   0  0  0  0  0  0  0  0  0  0  0  0
    3.5127   -3.0215    0.0000 N   0  0  0  0  0  0  0  0  0  0  0  0
    5.0775   -4.4736    0.0000 C   0  0  0  0  0  0  0  0  0  0  0  0
    5.8980   -4.3874    0.0000 C   0  0  0  0  0  0  0  0  0  0  0  0
    6.3829   -5.0548    0.0000 C   0  0  0  0  0  0  0  0  0  0  0  0
    6.0474   -5.8085    0.0000 C   0  0  0  0  0  0  0  0  0  0  0  0
    6.5323   -6.4759    0.0000 O   0  0  0  0  0  0  0  0  0  0  0  0
    6.1968   -7.2296    0.0000 C   0  0  0  0  0  0  0  0  0  0  0  0
    6.6817   -7.8970    0.0000 C   0  0  0  0  0  0  0  0  0  0  0  0
    6.3461   -8.6507    0.0000 C   0  0  0  0  0  0  0  0  0  0  0  0
    5.5256   -8.7369    0.0000 C   0  0  0  0  0  0  0  0  0  0  0  0
    5.0407   -8.0695    0.0000 C   0  0  0  0  0  0  0  0  0  0  0  0
    5.3763   -7.3158    0.0000 C   0  0  0  0  0  0  0  0  0  0  0  0
    5.2269   -5.8947    0.0000 C   0  0  0  0  0  0  0  0  0  0  0  0
    4.7420   -5.2273    0.0000 C   0  0  0  0  0  0  0  0  0  0  0  0
  1  2  1  0  0  0  0
  2  3  1  0  0  0  0
  2  4  1  0  0  0  0
  2  5  1  0  0  0  0
  5  6  1  0  0  0  0
  6  7  2  0  0  0  0
  6  8  1  0  0  0  0
  8  9  1  0  0  0  0
  9 10  1  0  0  0  0
 10 11  1  0  0  0  0
 11 12  1  0  0  0  0
 12 13  1  0  0  0  0
  8 13  1  0  0  0  0
 11 14  1  0  0  0  0
 14 15  2  0  0  0  0
 15 16  1  0  0  0  0
 16 17  2  0  0  0  0
 17 18  1  0  0  0  0
 14 18  1  0  0  0  0
 16 19  1  0  0  0  0
 19 20  2  0  0  0  0
 20 21  1  0  0  0  0
 21 22  2  0  0  0  0
 22 23  1  0  0  0  0
 23 24  1  0  0  0  0
 24 25  2  0  0  0  0
 25 26  1  0  0  0  0
 26 27  2  0  0  0  0
 27 28  1  0  0  0  0
 28 29  2  0  0  0  0
 24 29  1  0  0  0  0
 22 30  1  0  0  0  0
 30 31  2  0  0  0  0
 19 31  1  0  0  0  0
M  END
> <COMPOUND_ID>
MMV676057

$$$$

  Mrv0541 04191616472D          

 25 27  0  0  0  0            999 V2000
    0.7145    0.4125    0.0000 F   0  0  0  0  0  0  0  0  0  0  0  0
    0.7145   -0.4125    0.0000 C   0  0  0  0  0  0  0  0  0  0  0  0
   -0.1105   -0.4125    0.0000 F   0  0  0  0  0  0  0  0  0  0  0  0
    1.5395   -0.4125    0.0000 F   0  0  0  0  0  0  0  0  0  0  0  0
    0.7145   -1.2375    0.0000 C   0  0  0  0  0  0  0  0  0  0  0  0
    1.4289   -1.6500    0.0000 C   0  0  0  0  0  0  0  0  0  0  0  0
    1.4289   -2.4750    0.0000 C   0  0  0  0  0  0  0  0  0  0  0  0
    2.1434   -2.8875    0.0000 N   0  0  0  0  0  0  0  0  0  0  0  0
    2.8579   -2.4750    0.0000 C   0  0  0  0  0  0  0  0  0  0  0  0
    3.5724   -2.8875    0.0000 C   0  0  0  0  0  0  0  0  0  0  0  0
    4.2868   -2.4750    0.0000 C   0  0  0  0  0  0  0  0  0  0  0  0
    4.2868   -1.6500    0.0000 C   0  0  0  0  0  0  0  0  0  0  0  0
    5.0013   -1.2375    0.0000 C   0  0  0  0  0  0  0  0  0  0  0  0
    5.7158   -1.6500    0.0000 C   0  0  0  0  0  0  0  0  0  0  0  0
    5.7158   -2.4750    0.0000 C   0  0  0  0  0  0  0  0  0  0  0  0
    5.0013   -2.8875    0.0000 C   0  0  0  0  0  0  0  0  0  0  0  0
    0.7145   -2.8875    0.0000 N   0  0  0  0  0  0  0  0  0  0  0  0
    0.0000   -2.4750    0.0000 C   0  0  0  0  0  0  0  0  0  0  0  0
    0.0000   -1.6500    0.0000 N   0  0  0  0  0  0  0  0  0  0  0  0
   -0.7145   -2.8875    0.0000 C   0  0  0  0  0  0  0  0  0  0  0  0
   -0.7145   -3.7125    0.0000 C   0  0  0  0  0  0  0  0  0  0  0  0
   -1.4289   -4.1250    0.0000 C   0  0  0  0  0  0  0  0  0  0  0  0
   -2.1434   -3.7125    0.0000 C   0  0  0  0  0  0  0  0  0  0  0  0
   -2.1434   -2.8875    0.0000 C   0  0  0  0  0  0  0  0  0  0  0  0
   -1.4289   -2.4750    0.0000 N   0  0  0  0  0  0  0  0  0  0  0  0
  1  2  1  0  0  0  0
  2  3  1  0  0  0  0
  2  4  1  0  0  0  0
  2  5  1  0  0  0  0
  5  6  2  0  0  0  0
  6  7  1  0  0  0  0
  7  8  1  0  0  0  0
  8  9  1  0  0  0  0
  9 10  1  0  0  0  0
 10 11  1  0  0  0  0
 11 12  2  0  0  0  0
 12 13  1  0  0  0  0
 13 14  2  0  0  0  0
 14 15  1  0  0  0  0
 15 16  2  0  0  0  0
 11 16  1  0  0  0  0
  7 17  2  0  0  0  0
 17 18  1  0  0  0  0
 18 19  2  0  0  0  0
  5 19  1  0  0  0  0
 18 20  1  0  0  0  0
 20 21  2  0  0  0  0
 21 22  1  0  0  0  0
 22 23  2  0  0  0  0
 23 24  1  0  0  0  0
 24 25  2  0  0  0  0
 20 25  1  0  0  0  0
M  END
> <COMPOUND_ID>
MMV659010

$$$$

  Mrv0541 04191616472D          

 24 27  0  0  1  0            999 V2000
   -1.4289   -4.9500    0.0000 Cl  0  0  0  0  0  0  0  0  0  0  0  0
   -1.4289   -4.1250    0.0000 C   0  0  0  0  0  0  0  0  0  0  0  0
   -2.1434   -3.7125    0.0000 C   0  0  0  0  0  0  0  0  0  0  0  0
   -2.1434   -2.8875    0.0000 C   0  0  0  0  0  0  0  0  0  0  0  0
   -1.4289   -2.4750    0.0000 C   0  0  0  0  0  0  0  0  0  0  0  0
   -0.7145   -2.8875    0.0000 C   0  0  0  0  0  0  0  0  0  0  0  0
    0.0000   -2.4750    0.0000 C   0  0  0  0  0  0  0  0  0  0  0  0
    0.0000   -1.6500    0.0000 O   0  0  0  0  0  0  0  0  0  0  0  0
    0.7145   -1.2375    0.0000 C   0  0  1  0  0  0  0  0  0  0  0  0
    0.7145   -0.4125    0.0000 C   0  0  0  0  0  0  0  0  0  0  0  0
    1.4289    0.0000    0.0000 C   0  0  0  0  0  0  0  0  0  0  0  0
    2.1434   -0.4125    0.0000 C   0  0  0  0  0  0  0  0  0  0  0  0
    2.8579    0.0000    0.0000 C   0  0  0  0  0  0  0  0  0  0  0  0
    3.5724   -0.4125    0.0000 C   0  0  0  0  0  0  0  0  0  0  0  0
    3.5724   -1.2375    0.0000 C   0  0  0  0  0  0  0  0  0  0  0  0
    2.8579   -1.6500    0.0000 C   0  0  0  0  0  0  0  0  0  0  0  0
    2.1434   -1.2375    0.0000 C   0  0  0  0  0  0  0  0  0  0  0  0
    1.4289   -1.6500    0.0000 C   0  0  2  0  0  0  0  0  0  0  0  0
    1.4289   -2.4750    0.0000 N   0  0  0  0  0  0  0  0  0  0  0  0
    2.0964   -2.9599    0.0000 C   0  0  0  0  0  0  0  0  0  0  0  0
    1.8414   -3.7445    0.0000 C   0  0  0  0  0  0  0  0  0  0  0  0
    1.0164   -3.7445    0.0000 N   0  0  0  0  0  0  0  0  0  0  0  0
    0.7615   -2.9599    0.0000 N   0  0  0  0  0  0  0  0  0  0  0  0
   -0.7145   -3.7125    0.0000 C   0  0  0  0  0  0  0  0  0  0  0  0
  1  2  1  0  0  0  0
  2  3  2  0  0  0  0
  3  4  1  0  0  0  0
  4  5  2  0  0  0  0
  5  6  1  0  0  0  0
  6  7  1  0  0  0  0
  7  8  1  0  0  0  0
  9  8  1  1  0  0  0
  9 10  1  0  0  0  0
 10 11  1  0  0  0  0
 11 12  1  0  0  0  0
 12 13  2  0  0  0  0
 13 14  1  0  0  0  0
 14 15  2  0  0  0  0
 15 16  1  0  0  0  0
 16 17  2  0  0  0  0
 12 17  1  0  0  0  0
 17 18  1  0  0  0  0
  9 18  1  0  0  0  0
 18 19  1  6  0  0  0
 19 20  1  0  0  0  0
 20 21  2  0  0  0  0
 21 22  1  0  0  0  0
 22 23  2  0  0  0  0
 19 23  1  0  0  0  0
  6 24  2  0  0  0  0
  2 24  1  0  0  0  0
M  END
> <COMPOUND_ID>
MMV676159

$$$$

  Mrv0541 04191616472D          

 25 28  0  0  0  0            999 V2000
    4.1801   -1.7116    0.0000 C   0  0  0  0  0  0  0  0  0  0  0  0
    3.4656   -1.2991    0.0000 N   0  0  0  0  0  0  0  0  0  0  0  0
    2.7512   -1.7116    0.0000 C   0  0  0  0  0  0  0  0  0  0  0  0
    2.0367   -1.2991    0.0000 C   0  0  0  0  0  0  0  0  0  0  0  0
    2.0367   -0.4741    0.0000 O   0  0  0  0  0  0  0  0  0  0  0  0
    2.7512   -0.0616    0.0000 C   0  0  0  0  0  0  0  0  0  0  0  0
    3.4656   -0.4741    0.0000 C   0  0  0  0  0  0  0  0  0  0  0  0
    4.1801   -2.5366    0.0000 C   0  0  0  0  0  0  0  0  0  0  0  0
    4.8476   -3.0215    0.0000 C   0  0  0  0  0  0  0  0  0  0  0  0
    4.5926   -3.8062    0.0000 C   0  0  0  0  0  0  0  0  0  0  0  0
    3.7676   -3.8062    0.0000 N   0  0  0  0  0  0  0  0  0  0  0  0
    3.5127   -3.0215    0.0000 N   0  0  0  0  0  0  0  0  0  0  0  0
    5.0775   -4.4736    0.0000 C   0  0  0  0  0  0  0  0  0  0  0  0
    5.8980   -4.3874    0.0000 C   0  0  0  0  0  0  0  0  0  0  0  0
    6.3829   -5.0548    0.0000 C   0  0  0  0  0  0  0  0  0  0  0  0
    6.0474   -5.8085    0.0000 C   0  0  0  0  0  0  0  0  0  0  0  0
    6.5323   -6.4759    0.0000 O   0  0  0  0  0  0  0  0  0  0  0  0
    6.1968   -7.2296    0.0000 C   0  0  0  0  0  0  0  0  0  0  0  0
    6.6817   -7.8970    0.0000 C   0  0  0  0  0  0  0  0  0  0  0  0
    6.3461   -8.6507    0.0000 C   0  0  0  0  0  0  0  0  0  0  0  0
    5.5256   -8.7369    0.0000 C   0  0  0  0  0  0  0  0  0  0  0  0
    5.0407   -8.0695    0.0000 C   0  0  0  0  0  0  0  0  0  0  0  0
    5.3763   -7.3158    0.0000 C   0  0  0  0  0  0  0  0  0  0  0  0
    5.2269   -5.8947    0.0000 C   0  0  0  0  0  0  0  0  0  0  0  0
    4.7420   -5.2273    0.0000 C   0  0  0  0  0  0  0  0  0  0  0  0
  1  2  1  0  0  0  0
  2  3  1  0  0  0  0
  3  4  1  0  0  0  0
  4  5  1  0  0  0  0
  5  6  1  0  0  0  0
  6  7  1  0  0  0  0
  2  7  1  0  0  0  0
  1  8  1  0  0  0  0
  8  9  2  0  0  0  0
  9 10  1  0  0  0  0
 10 11  2  0  0  0  0
 11 12  1  0  0  0  0
  8 12  1  0  0  0  0
 10 13  1  0  0  0  0
 13 14  2  0  0  0  0
 14 15  1  0  0  0  0
 15 16  2  0  0  0  0
 16 17  1  0  0  0  0
 17 18  1  0  0  0  0
 18 19  2  0  0  0  0
 19 20  1  0  0  0  0
 20 21  2  0  0  0  0
 21 22  1  0  0  0  0
 22 23  2  0  0  0  0
 18 23  1  0  0  0  0
 16 24  1  0  0  0  0
 24 25  2  0  0  0  0
 13 25  1  0  0  0  0
M  END
> <COMPOUND_ID>
MMV676161

$$$$

  Mrv0541 04191616472D          

 27 30  0  0  0  0            999 V2000
    3.9934    2.4750    0.0000 O   0  0  0  0  0  0  0  0  0  0  0  0
    3.2789    2.0625    0.0000 C   0  0  0  0  0  0  0  0  0  0  0  0
    2.5645    2.4750    0.0000 O   0  0  0  0  0  0  0  0  0  0  0  0
    3.2789    1.2375    0.0000 C   0  0  0  0  0  0  0  0  0  0  0  0
    3.9934    0.8250    0.0000 C   0  0  0  0  0  0  0  0  0  0  0  0
    3.9934    0.0000    0.0000 C   0  0  0  0  0  0  0  0  0  0  0  0
    3.2789   -0.4125    0.0000 C   0  0  0  0  0  0  0  0  0  0  0  0
    2.5645    0.0000    0.0000 C   0  0  0  0  0  0  0  0  0  0  0  0
    1.7798   -0.2549    0.0000 O   0  0  0  0  0  0  0  0  0  0  0  0
    1.2949    0.4125    0.0000 C   0  0  0  0  0  0  0  0  0  0  0  0
    1.7798    1.0799    0.0000 N   0  0  0  0  0  0  0  0  0  0  0  0
    2.5645    0.8250    0.0000 C   0  0  0  0  0  0  0  0  0  0  0  0
    0.4699    0.4125    0.0000 C   0  0  0  0  0  0  0  0  0  0  0  0
    0.0574   -0.3020    0.0000 C   0  0  0  0  0  0  0  0  0  0  0  0
   -0.7676   -0.3020    0.0000 C   0  0  0  0  0  0  0  0  0  0  0  0
   -1.1801    0.4125    0.0000 C   0  0  0  0  0  0  0  0  0  0  0  0
   -0.7676    1.1270    0.0000 C   0  0  0  0  0  0  0  0  0  0  0  0
    0.0574    1.1270    0.0000 C   0  0  0  0  0  0  0  0  0  0  0  0
    0.4699    1.8414    0.0000 N   0  0  0  0  0  0  0  0  0  0  0  0
    0.0574    2.5559    0.0000 C   0  0  0  0  0  0  0  0  0  0  0  0
   -0.7676    2.5559    0.0000 O   0  0  0  0  0  0  0  0  0  0  0  0
    0.4699    3.2704    0.0000 C   0  0  0  0  0  0  0  0  0  0  0  0
    0.0574    3.9849    0.0000 C   0  0  0  0  0  0  0  0  0  0  0  0
    0.4699    4.6993    0.0000 C   0  0  0  0  0  0  0  0  0  0  0  0
    1.2949    4.6993    0.0000 C   0  0  0  0  0  0  0  0  0  0  0  0
    1.7074    3.9849    0.0000 C   0  0  0  0  0  0  0  0  0  0  0  0
    1.2949    3.2704    0.0000 C   0  0  0  0  0  0  0  0  0  0  0  0
  1  2  1  0  0  0  0
  2  3  2  0  0  0  0
  2  4  1  0  0  0  0
  4  5  1  0  0  0  0
  5  6  2  0  0  0  0
  6  7  1  0  0  0  0
  7  8  2  0  0  0  0
  8  9  1  0  0  0  0
  9 10  1  0  0  0  0
 10 11  2  0  0  0  0
 11 12  1  0  0  0  0
  4 12  2  0  0  0  0
  8 12  1  0  0  0  0
 10 13  1  0  0  0  0
 13 14  2  0  0  0  0
 14 15  1  0  0  0  0
 15 16  2  0  0  0  0
 16 17  1  0  0  0  0
 17 18  2  0  0  0  0
 13 18  1  0  0  0  0
 18 19  1  0  0  0  0
 19 20  1  0  0  0  0
 20 21  2  0  0  0  0
 20 22  1  0  0  0  0
 22 23  2  0  0  0  0
 23 24  1  0  0  0  0
 24 25  2  0  0  0  0
 25 26  1  0  0  0  0
 26 27  2  0  0  0  0
 22 27  1  0  0  0  0
M  END
> <COMPOUND_ID>
MMV676162

$$$$

  Mrv0541 04191616472D          

 27 29  0  0  0  0            999 V2000
    0.7145   -0.4125    0.0000 C   0  0  0  0  0  0  0  0  0  0  0  0
    0.7145   -1.2375    0.0000 C   0  0  0  0  0  0  0  0  0  0  0  0
    1.4289   -1.6500    0.0000 N   0  0  0  0  0  0  0  0  0  0  0  0
    1.4289   -2.4750    0.0000 C   0  0  0  0  0  0  0  0  0  0  0  0
    0.7145   -2.8875    0.0000 N   0  0  0  0  0  0  0  0  0  0  0  0
    0.0000   -2.4750    0.0000 C   0  0  0  0  0  0  0  0  0  0  0  0
   -0.7145   -2.8875    0.0000 N   0  0  0  0  0  0  0  0  0  0  0  0
   -1.4289   -2.4750    0.0000 C   0  0  0  0  0  0  0  0  0  0  0  0
   -2.1434   -2.8875    0.0000 C   0  0  0  0  0  0  0  0  0  0  0  0
   -2.8579   -2.4750    0.0000 C   0  0  0  0  0  0  0  0  0  0  0  0
   -3.5724   -2.8875    0.0000 C   0  0  0  0  0  0  0  0  0  0  0  0
   -4.2868   -2.4750    0.0000 C   0  0  0  0  0  0  0  0  0  0  0  0
   -4.2868   -1.6500    0.0000 C   0  0  0  0  0  0  0  0  0  0  0  0
   -3.5724   -1.2375    0.0000 C   0  0  0  0  0  0  0  0  0  0  0  0
   -2.8579   -1.6500    0.0000 C   0  0  0  0  0  0  0  0  0  0  0  0
   -5.0013   -1.2375    0.0000 S   0  0  0  0  0  0  0  0  0  0  0  0
   -5.7158   -0.8250    0.0000 O   0  0  0  0  0  0  0  0  0  0  0  0
   -5.4138   -1.9520    0.0000 O   0  0  0  0  0  0  0  0  0  0  0  0
   -4.5888   -0.5230    0.0000 C   0  0  0  0  0  0  0  0  0  0  0  0
    0.0000   -1.6500    0.0000 C   0  0  0  0  0  0  0  0  0  0  0  0
   -0.7145   -1.2375    0.0000 Cl  0  0  0  0  0  0  0  0  0  0  0  0
    2.1434   -2.8875    0.0000 C   0  0  0  0  0  0  0  0  0  0  0  0
    2.8579   -2.4750    0.0000 C   0  0  0  0  0  0  0  0  0  0  0  0
    3.5724   -2.8875    0.0000 C   0  0  0  0  0  0  0  0  0  0  0  0
    3.5724   -3.7125    0.0000 C   0  0  0  0  0  0  0  0  0  0  0  0
    2.8579   -4.1250    0.0000 C   0  0  0  0  0  0  0  0  0  0  0  0
    2.1434   -3.7125    0.0000 N   0  0  0  0  0  0  0  0  0  0  0  0
  1  2  1  0  0  0  0
  2  3  2  0  0  0  0
  3  4  1  0  0  0  0
  4  5  2  0  0  0  0
  5  6  1  0  0  0  0
  6  7  1  0  0  0  0
  7  8  1  0  0  0  0
  8  9  1  0  0  0  0
  9 10  1  0  0  0  0
 10 11  2  0  0  0  0
 11 12  1  0  0  0  0
 12 13  2  0  0  0  0
 13 14  1  0  0  0  0
 14 15  2  0  0  0  0
 10 15  1  0  0  0  0
 13 16  1  0  0  0  0
 16 17  2  0  0  0  0
 16 18  2  0  0  0  0
 16 19  1  0  0  0  0
  6 20  2  0  0  0  0
  2 20  1  0  0  0  0
 20 21  1  0  0  0  0
  4 22  1  0  0  0  0
 22 23  2  0  0  0  0
 23 24  1  0  0  0  0
 24 25  2  0  0  0  0
 25 26  1  0  0  0  0
 26 27  2  0  0  0  0
 22 27  1  0  0  0  0
M  END
> <COMPOUND_ID>
MMV658993

$$$$

  Mrv0541 04191616472D          

 35 39  0  0  0  0            999 V2000
    4.7079    2.0625    0.0000 C   0  0  0  0  0  0  0  0  0  0  0  0
    3.9934    2.4750    0.0000 O   0  0  0  0  0  0  0  0  0  0  0  0
    3.2789    2.0625    0.0000 C   0  0  0  0  0  0  0  0  0  0  0  0
    2.5645    2.4750    0.0000 O   0  0  0  0  0  0  0  0  0  0  0  0
    3.2789    1.2375    0.0000 C   0  0  0  0  0  0  0  0  0  0  0  0
    3.9934    0.8250    0.0000 C   0  0  0  0  0  0  0  0  0  0  0  0
    3.9934    0.0000    0.0000 C   0  0  0  0  0  0  0  0  0  0  0  0
    3.2789   -0.4125    0.0000 C   0  0  0  0  0  0  0  0  0  0  0  0
    2.5645    0.0000    0.0000 C   0  0  0  0  0  0  0  0  0  0  0  0
    1.7798   -0.2549    0.0000 O   0  0  0  0  0  0  0  0  0  0  0  0
    1.2949    0.4125    0.0000 C   0  0  0  0  0  0  0  0  0  0  0  0
    1.7798    1.0799    0.0000 N   0  0  0  0  0  0  0  0  0  0  0  0
    2.5645    0.8250    0.0000 C   0  0  0  0  0  0  0  0  0  0  0  0
    0.4699    0.4125    0.0000 C   0  0  0  0  0  0  0  0  0  0  0  0
    0.0574   -0.3020    0.0000 C   0  0  0  0  0  0  0  0  0  0  0  0
   -0.7676   -0.3020    0.0000 C   0  0  0  0  0  0  0  0  0  0  0  0
   -1.1801    0.4125    0.0000 C   0  0  0  0  0  0  0  0  0  0  0  0
   -0.7676    1.1270    0.0000 C   0  0  0  0  0  0  0  0  0  0  0  0
   -1.1801    1.8414    0.0000 O   0  0  0  0  0  0  0  0  0  0  0  0
   -2.0051    1.8414    0.0000 C   0  0  0  0  0  0  0  0  0  0  0  0
    0.0574    1.1270    0.0000 C   0  0  0  0  0  0  0  0  0  0  0  0
    0.4699    1.8414    0.0000 N   0  0  0  0  0  0  0  0  0  0  0  0
    0.0574    2.5559    0.0000 C   0  0  0  0  0  0  0  0  0  0  0  0
   -0.7676    2.5559    0.0000 O   0  0  0  0  0  0  0  0  0  0  0  0
    0.4699    3.2704    0.0000 C   0  0  0  0  0  0  0  0  0  0  0  0
    0.1344    4.0241    0.0000 C   0  0  0  0  0  0  0  0  0  0  0  0
    0.7474    4.5761    0.0000 C   0  0  0  0  0  0  0  0  0  0  0  0
    1.4619    4.1636    0.0000 O   0  0  0  0  0  0  0  0  0  0  0  0
    1.2904    3.3566    0.0000 N   0  0  0  0  0  0  0  0  0  0  0  0
    0.6612    5.3966    0.0000 C   0  0  0  0  0  0  0  0  0  0  0  0
   -0.0925    5.7321    0.0000 C   0  0  0  0  0  0  0  0  0  0  0  0
   -0.1787    6.5526    0.0000 C   0  0  0  0  0  0  0  0  0  0  0  0
    0.4887    7.0375    0.0000 C   0  0  0  0  0  0  0  0  0  0  0  0
    1.2424    6.7020    0.0000 C   0  0  0  0  0  0  0  0  0  0  0  0
    1.3287    5.8815    0.0000 C   0  0  0  0  0  0  0  0  0  0  0  0
  1  2  1  0  0  0  0
  2  3  1  0  0  0  0
  3  4  2  0  0  0  0
  3  5  1  0  0  0  0
  5  6  1  0  0  0  0
  6  7  2  0  0  0  0
  7  8  1  0  0  0  0
  8  9  2  0  0  0  0
  9 10  1  0  0  0  0
 10 11  1  0  0  0  0
 11 12  2  0  0  0  0
 12 13  1  0  0  0  0
  5 13  2  0  0  0  0
  9 13  1  0  0  0  0
 11 14  1  0  0  0  0
 14 15  2  0  0  0  0
 15 16  1  0  0  0  0
 16 17  2  0  0  0  0
 17 18  1  0  0  0  0
 18 19  1  0  0  0  0
 19 20  1  0  0  0  0
 18 21  2  0  0  0  0
 14 21  1  0  0  0  0
 21 22  1  0  0  0  0
 22 23  1  0  0  0  0
 23 24  2  0  0  0  0
 23 25  1  0  0  0  0
 25 26  1  0  0  0  0
 26 27  2  0  0  0  0
 27 28  1  0  0  0  0
 28 29  1  0  0  0  0
 25 29  2  0  0  0  0
 27 30  1  0  0  0  0
 30 31  2  0  0  0  0
 31 32  1  0  0  0  0
 32 33  2  0  0  0  0
 33 34  1  0  0  0  0
 34 35  2  0  0  0  0
 30 35  1  0  0  0  0
M  END
> <COMPOUND_ID>
MMV676186

$$$$

  Mrv0541 04191616472D          

 22 23  0  0  0  0            999 V2000
    2.1434   -2.0625    0.0000 C   0  0  0  0  0  0  0  0  0  0  0  0
    2.8579   -1.6500    0.0000 N   0  0  0  0  0  0  0  0  0  0  0  0
    3.5724   -2.0625    0.0000 C   0  0  0  0  0  0  0  0  0  0  0  0
    4.2868   -1.6500    0.0000 C   0  0  0  0  0  0  0  0  0  0  0  0
    5.0013   -2.0625    0.0000 C   0  0  0  0  0  0  0  0  0  0  0  0
    5.7158   -1.6500    0.0000 O   0  0  0  0  0  0  0  0  0  0  0  0
    6.4302   -2.0625    0.0000 C   0  0  0  0  0  0  0  0  0  0  0  0
    7.1447   -1.6500    0.0000 C   0  0  0  0  0  0  0  0  0  0  0  0
    7.8592   -2.0625    0.0000 C   0  0  0  0  0  0  0  0  0  0  0  0
    7.8592   -2.8875    0.0000 C   0  0  0  0  0  0  0  0  0  0  0  0
    7.1447   -3.3000    0.0000 C   0  0  0  0  0  0  0  0  0  0  0  0
    6.4302   -2.8875    0.0000 C   0  0  0  0  0  0  0  0  0  0  0  0
    8.5737   -3.3000    0.0000 C   0  0  0  0  0  0  0  0  0  0  0  0
    9.2881   -3.7125    0.0000 F   0  0  0  0  0  0  0  0  0  0  0  0
    8.1612   -4.0145    0.0000 F   0  0  0  0  0  0  0  0  0  0  0  0
    8.9862   -2.5855    0.0000 F   0  0  0  0  0  0  0  0  0  0  0  0
    5.0013   -2.8875    0.0000 C   0  0  0  0  0  0  0  0  0  0  0  0
    5.7158   -3.3000    0.0000 C   0  0  0  0  0  0  0  0  0  0  0  0
    5.7158   -4.1250    0.0000 C   0  0  0  0  0  0  0  0  0  0  0  0
    5.0013   -4.5375    0.0000 C   0  0  0  0  0  0  0  0  0  0  0  0
    4.2868   -4.1250    0.0000 C   0  0  0  0  0  0  0  0  0  0  0  0
    4.2868   -3.3000    0.0000 C   0  0  0  0  0  0  0  0  0  0  0  0
  1  2  1  0  0  0  0
  2  3  1  0  0  0  0
  3  4  1  0  0  0  0
  4  5  1  0  0  0  0
  5  6  1  0  0  0  0
  6  7  1  0  0  0  0
  7  8  2  0  0  0  0
  8  9  1  0  0  0  0
  9 10  2  0  0  0  0
 10 11  1  0  0  0  0
 11 12  2  0  0  0  0
  7 12  1  0  0  0  0
 10 13  1  0  0  0  0
 13 14  1  0  0  0  0
 13 15  1  0  0  0  0
 13 16  1  0  0  0  0
  5 17  1  0  0  0  0
 17 18  2  0  0  0  0
 18 19  1  0  0  0  0
 19 20  2  0  0  0  0
 20 21  1  0  0  0  0
 21 22  2  0  0  0  0
 17 22  1  0  0  0  0
M  END
> <COMPOUND_ID>
MMV001561

$$$$

  Mrv0541 04191616472D          

 35 39  0  0  1  0            999 V2000
   -0.4529   -2.3984    0.0000 C   0  0  0  0  0  0  0  0  0  0  0  0
   -0.0404   -1.6839    0.0000 O   0  0  0  0  0  0  0  0  0  0  0  0
   -0.4529   -0.9694    0.0000 C   0  0  1  0  0  0  0  0  0  0  0  0
   -0.0404   -0.2549    0.0000 C   0  0  0  0  0  0  0  0  0  0  0  0
   -0.4529    0.4595    0.0000 O   0  0  0  0  0  0  0  0  0  0  0  0
    0.7846   -0.2549    0.0000 N   0  0  0  0  0  0  0  0  0  0  0  0
    1.2695    0.4125    0.0000 C   0  0  0  0  0  0  0  0  0  0  0  0
    2.0542    0.1576    0.0000 C   0  0  0  0  0  0  0  0  0  0  0  0
    2.8388    0.4125    0.0000 N   0  0  0  0  0  0  0  0  0  0  0  0
    3.3237   -0.2549    0.0000 N   0  0  0  0  0  0  0  0  0  0  0  0
    2.8388   -0.9224    0.0000 C   0  0  0  0  0  0  0  0  0  0  0  0
    3.0937   -1.7070    0.0000 N   0  0  0  0  0  0  0  0  0  0  0  0
    3.9007   -1.8785    0.0000 C   0  0  0  0  0  0  0  0  0  0  0  0
    4.4527   -1.2654    0.0000 O   0  0  0  0  0  0  0  0  0  0  0  0
    4.1556   -2.6631    0.0000 C   0  0  0  0  0  0  0  0  0  0  0  0
    4.9626   -2.8347    0.0000 C   0  0  0  0  0  0  0  0  0  0  0  0
    5.2175   -3.6193    0.0000 C   0  0  0  0  0  0  0  0  0  0  0  0
    4.6655   -4.2324    0.0000 C   0  0  0  0  0  0  0  0  0  0  0  0
    3.8585   -4.0609    0.0000 C   0  0  0  0  0  0  0  0  0  0  0  0
    3.6036   -3.2762    0.0000 C   0  0  0  0  0  0  0  0  0  0  0  0
    4.9205   -5.0170    0.0000 N   0  0  0  0  0  0  0  0  0  0  0  0
    5.7274   -5.1885    0.0000 C   0  0  0  0  0  0  0  0  0  0  0  0
    5.9824   -5.9732    0.0000 C   0  0  0  0  0  0  0  0  0  0  0  0
    5.4303   -6.5863    0.0000 N   0  0  0  0  0  0  0  0  0  0  0  0
    5.6853   -7.3709    0.0000 C   0  0  0  0  0  0  0  0  0  0  0  0
    4.6234   -6.4147    0.0000 C   0  0  0  0  0  0  0  0  0  0  0  0
    4.3684   -5.6301    0.0000 C   0  0  0  0  0  0  0  0  0  0  0  0
    2.0542   -0.6674    0.0000 C   0  0  0  0  0  0  0  0  0  0  0  0
    1.2695   -0.9224    0.0000 C   0  0  0  0  0  0  0  0  0  0  0  0
   -1.2779   -0.9694    0.0000 C   0  0  0  0  0  0  0  0  0  0  0  0
   -1.6904   -1.6839    0.0000 C   0  0  0  0  0  0  0  0  0  0  0  0
   -2.5154   -1.6839    0.0000 C   0  0  0  0  0  0  0  0  0  0  0  0
   -2.9279   -0.9694    0.0000 C   0  0  0  0  0  0  0  0  0  0  0  0
   -2.5154   -0.2549    0.0000 C   0  0  0  0  0  0  0  0  0  0  0  0
   -1.6904   -0.2549    0.0000 C   0  0  0  0  0  0  0  0  0  0  0  0
  1  2  1  0  0  0  0
  3  2  1  6  0  0  0
  3  4  1  0  0  0  0
  4  5  2  0  0  0  0
  4  6  1  0  0  0  0
  6  7  1  0  0  0  0
  7  8  1  0  0  0  0
  8  9  1  0  0  0  0
  9 10  1  0  0  0  0
 10 11  2  0  0  0  0
 11 12  1  0  0  0  0
 12 13  1  0  0  0  0
 13 14  2  0  0  0  0
 13 15  1  0  0  0  0
 15 16  2  0  0  0  0
 16 17  1  0  0  0  0
 17 18  2  0  0  0  0
 18 19  1  0  0  0  0
 19 20  2  0  0  0  0
 15 20  1  0  0  0  0
 18 21  1  0  0  0  0
 21 22  1  0  0  0  0
 22 23  1  0  0  0  0
 23 24  1  0  0  0  0
 24 25  1  0  0  0  0
 24 26  1  0  0  0  0
 26 27  1  0  0  0  0
 21 27  1  0  0  0  0
 11 28  1  0  0  0  0
  8 28  2  0  0  0  0
 28 29  1  0  0  0  0
  6 29  1  0  0  0  0
  3 30  1  0  0  0  0
 30 31  2  0  0  0  0
 31 32  1  0  0  0  0
 32 33  2  0  0  0  0
 33 34  1  0  0  0  0
 34 35  2  0  0  0  0
 30 35  1  0  0  0  0
M  END
> <COMPOUND_ID>
MMV676600

$$$$

  Mrv0541 04191616472D          

 34 38  0  0  0  0            999 V2000
   -1.7845   -3.1744    0.0000 C   0  0  0  0  0  0  0  0  0  0  0  0
   -1.1544   -2.6418    0.0000 N   0  0  0  0  0  0  0  0  0  0  0  0
   -0.3781   -2.9211    0.0000 C   0  0  0  0  0  0  0  0  0  0  0  0
   -0.2319   -3.7331    0.0000 O   0  0  0  0  0  0  0  0  0  0  0  0
    0.2519   -2.3885    0.0000 C   0  0  0  0  0  0  0  0  0  0  0  0
    0.1913   -1.5657    0.0000 N   0  0  0  0  0  0  0  0  0  0  0  0
    0.9551   -1.2539    0.0000 N   0  0  0  0  0  0  0  0  0  0  0  0
    1.1517   -0.4527    0.0000 C   0  0  0  0  0  0  0  0  0  0  0  0
    1.4877   -1.8839    0.0000 C   0  0  0  0  0  0  0  0  0  0  0  0
    2.3123   -1.9097    0.0000 C   0  0  0  0  0  0  0  0  0  0  0  0
    2.7469   -1.2084    0.0000 N   0  0  0  0  0  0  0  0  0  0  0  0
    3.5715   -1.2342    0.0000 C   0  0  0  0  0  0  0  0  0  0  0  0
    4.0061   -0.5330    0.0000 N   0  0  0  0  0  0  0  0  0  0  0  0
    4.8307   -0.5587    0.0000 C   0  0  0  0  0  0  0  0  0  0  0  0
    5.2653    0.1425    0.0000 C   0  0  0  0  0  0  0  0  0  0  0  0
    6.0899    0.1168    0.0000 C   0  0  0  0  0  0  0  0  0  0  0  0
    6.4799   -0.6102    0.0000 C   0  0  0  0  0  0  0  0  0  0  0  0
    6.0453   -1.3115    0.0000 C   0  0  0  0  0  0  0  0  0  0  0  0
    5.2207   -1.2857    0.0000 C   0  0  0  0  0  0  0  0  0  0  0  0
    7.3045   -0.6360    0.0000 N   0  0  0  0  0  0  0  0  0  0  0  0
    7.7391    0.0652    0.0000 C   0  0  0  0  0  0  0  0  0  0  0  0
    8.5637    0.0395    0.0000 C   0  0  0  0  0  0  0  0  0  0  0  0
    8.9537   -0.6875    0.0000 N   0  0  0  0  0  0  0  0  0  0  0  0
    9.7783   -0.7133    0.0000 C   0  0  0  0  0  0  0  0  0  0  0  0
    8.5191   -1.3888    0.0000 C   0  0  0  0  0  0  0  0  0  0  0  0
    7.6945   -1.3630    0.0000 C   0  0  0  0  0  0  0  0  0  0  0  0
    3.9615   -1.9612    0.0000 N   0  0  0  0  0  0  0  0  0  0  0  0
    3.5269   -2.6624    0.0000 C   0  0  0  0  0  0  0  0  0  0  0  0
    2.7023   -2.6367    0.0000 C   0  0  0  0  0  0  0  0  0  0  0  0
    2.2677   -3.3379    0.0000 C   0  0  0  0  0  0  0  0  0  0  0  0
    1.4431   -3.3122    0.0000 C   0  0  0  0  0  0  0  0  0  0  0  0
    1.5609   -4.1287    0.0000 C   0  0  0  0  0  0  0  0  0  0  0  0
    0.6594   -3.5700    0.0000 C   0  0  0  0  0  0  0  0  0  0  0  0
    1.0531   -2.5852    0.0000 C   0  0  0  0  0  0  0  0  0  0  0  0
  1  2  1  0  0  0  0
  2  3  1  0  0  0  0
  3  4  2  0  0  0  0
  3  5  1  0  0  0  0
  5  6  2  0  0  0  0
  6  7  1  0  0  0  0
  7  8  1  0  0  0  0
  7  9  1  0  0  0  0
  9 10  1  0  0  0  0
 10 11  2  0  0  0  0
 11 12  1  0  0  0  0
 12 13  1  0  0  0  0
 13 14  1  0  0  0  0
 14 15  2  0  0  0  0
 15 16  1  0  0  0  0
 16 17  2  0  0  0  0
 17 18  1  0  0  0  0
 18 19  2  0  0  0  0
 14 19  1  0  0  0  0
 17 20  1  0  0  0  0
 20 21  1  0  0  0  0
 21 22  1  0  0  0  0
 22 23  1  0  0  0  0
 23 24  1  0  0  0  0
 23 25  1  0  0  0  0
 25 26  1  0  0  0  0
 20 26  1  0  0  0  0
 12 27  2  0  0  0  0
 27 28  1  0  0  0  0
 28 29  2  0  0  0  0
 10 29  1  0  0  0  0
 29 30  1  0  0  0  0
 30 31  1  0  0  0  0
 31 32  1  0  0  0  0
 31 33  1  0  0  0  0
 31 34  1  0  0  0  0
  5 34  1  0  0  0  0
  9 34  2  0  0  0  0
M  END
> <COMPOUND_ID>
MMV676602

$$$$

  Mrv0541 04191616472D          

 26 28  0  0  0  0            999 V2000
    4.8946    1.0527    0.0000 C   0  0  0  0  0  0  0  0  0  0  0  0
    4.1801    0.6402    0.0000 C   0  0  0  0  0  0  0  0  0  0  0  0
    3.4656    1.0527    0.0000 C   0  0  0  0  0  0  0  0  0  0  0  0
    4.1801   -0.1848    0.0000 N   0  0  0  0  0  0  0  0  0  0  0  0
    4.8476   -0.6697    0.0000 C   0  0  0  0  0  0  0  0  0  0  0  0
    5.6322   -0.4148    0.0000 C   0  0  0  0  0  0  0  0  0  0  0  0
    4.5926   -1.4544    0.0000 N   0  0  0  0  0  0  0  0  0  0  0  0
    3.7676   -1.4544    0.0000 C   0  0  0  0  0  0  0  0  0  0  0  0
    3.5127   -0.6697    0.0000 C   0  0  0  0  0  0  0  0  0  0  0  0
    2.7281   -0.4148    0.0000 C   0  0  0  0  0  0  0  0  0  0  0  0
    2.1150   -0.9668    0.0000 C   0  0  0  0  0  0  0  0  0  0  0  0
    1.3303   -0.7119    0.0000 C   0  0  0  0  0  0  0  0  0  0  0  0
    1.1588    0.0951    0.0000 N   0  0  0  0  0  0  0  0  0  0  0  0
    1.7719    0.6471    0.0000 C   0  0  0  0  0  0  0  0  0  0  0  0
    1.6004    1.4541    0.0000 N   0  0  0  0  0  0  0  0  0  0  0  0
    2.2135    2.0061    0.0000 C   0  0  0  0  0  0  0  0  0  0  0  0
    2.0420    2.8131    0.0000 C   0  0  0  0  0  0  0  0  0  0  0  0
    2.6550    3.3651    0.0000 C   0  0  0  0  0  0  0  0  0  0  0  0
    3.4397    3.1102    0.0000 C   0  0  0  0  0  0  0  0  0  0  0  0
    3.6112    2.3032    0.0000 C   0  0  0  0  0  0  0  0  0  0  0  0
    2.9981    1.7512    0.0000 C   0  0  0  0  0  0  0  0  0  0  0  0
    4.0528    3.6622    0.0000 S   0  0  0  0  0  0  0  0  0  0  0  0
    4.6659    4.2142    0.0000 O   0  0  0  0  0  0  0  0  0  0  0  0
    4.6048    3.0491    0.0000 O   0  0  0  0  0  0  0  0  0  0  0  0
    3.5007    4.2753    0.0000 C   0  0  0  0  0  0  0  0  0  0  0  0
    2.5565    0.3922    0.0000 N   0  0  0  0  0  0  0  0  0  0  0  0
  1  2  1  0  0  0  0
  2  3  1  0  0  0  0
  2  4  1  0  0  0  0
  4  5  1  0  0  0  0
  5  6  1  0  0  0  0
  5  7  2  0  0  0  0
  7  8  1  0  0  0  0
  8  9  2  0  0  0  0
  4  9  1  0  0  0  0
  9 10  1  0  0  0  0
 10 11  2  0  0  0  0
 11 12  1  0  0  0  0
 12 13  2  0  0  0  0
 13 14  1  0  0  0  0
 14 15  1  0  0  0  0
 15 16  1  0  0  0  0
 16 17  2  0  0  0  0
 17 18  1  0  0  0  0
 18 19  2  0  0  0  0
 19 20  1  0  0  0  0
 20 21  2  0  0  0  0
 16 21  1  0  0  0  0
 19 22  1  0  0  0  0
 22 23  2  0  0  0  0
 22 24  2  0  0  0  0
 22 25  1  0  0  0  0
 14 26  2  0  0  0  0
 10 26  1  0  0  0  0
M  END
> <COMPOUND_ID>
MMV676604

$$$$

  Mrv0541 04191616472D          

 24 27  0  0  0  0            999 V2000
    4.8946   -0.4741    0.0000 C   0  0  0  0  0  0  0  0  0  0  0  0
    4.8946   -1.2991    0.0000 C   0  0  0  0  0  0  0  0  0  0  0  0
    4.1801   -1.7116    0.0000 N   0  0  0  0  0  0  0  0  0  0  0  0
    3.4656   -1.2991    0.0000 C   0  0  0  0  0  0  0  0  0  0  0  0
    3.4656   -0.4741    0.0000 C   0  0  0  0  0  0  0  0  0  0  0  0
    4.1801   -0.0616    0.0000 N   0  0  0  0  0  0  0  0  0  0  0  0
    4.1801   -2.5366    0.0000 C   0  0  0  0  0  0  0  0  0  0  0  0
    4.8476   -3.0215    0.0000 C   0  0  0  0  0  0  0  0  0  0  0  0
    4.5926   -3.8062    0.0000 C   0  0  0  0  0  0  0  0  0  0  0  0
    3.7676   -3.8062    0.0000 N   0  0  0  0  0  0  0  0  0  0  0  0
    3.5127   -3.0215    0.0000 N   0  0  0  0  0  0  0  0  0  0  0  0
    5.0775   -4.4736    0.0000 C   0  0  0  0  0  0  0  0  0  0  0  0
    5.8980   -4.3874    0.0000 C   0  0  0  0  0  0  0  0  0  0  0  0
    6.3829   -5.0548    0.0000 C   0  0  0  0  0  0  0  0  0  0  0  0
    6.0474   -5.8085    0.0000 C   0  0  0  0  0  0  0  0  0  0  0  0
    6.5323   -6.4759    0.0000 O   0  0  0  0  0  0  0  0  0  0  0  0
    6.1968   -7.2296    0.0000 C   0  0  0  0  0  0  0  0  0  0  0  0
    6.6817   -7.8970    0.0000 C   0  0  0  0  0  0  0  0  0  0  0  0
    6.3461   -8.6507    0.0000 C   0  0  0  0  0  0  0  0  0  0  0  0
    5.5256   -8.7369    0.0000 C   0  0  0  0  0  0  0  0  0  0  0  0
    5.0407   -8.0695    0.0000 C   0  0  0  0  0  0  0  0  0  0  0  0
    5.3763   -7.3158    0.0000 C   0  0  0  0  0  0  0  0  0  0  0  0
    5.2269   -5.8947    0.0000 C   0  0  0  0  0  0  0  0  0  0  0  0
    4.7420   -5.2273    0.0000 C   0  0  0  0  0  0  0  0  0  0  0  0
  1  2  1  0  0  0  0
  2  3  1  0  0  0  0
  3  4  1  0  0  0  0
  4  5  1  0  0  0  0
  5  6  1  0  0  0  0
  1  6  1  0  0  0  0
  3  7  1  0  0  0  0
  7  8  2  0  0  0  0
  8  9  1  0  0  0  0
  9 10  2  0  0  0  0
 10 11  1  0  0  0  0
  7 11  1  0  0  0  0
  9 12  1  0  0  0  0
 12 13  2  0  0  0  0
 13 14  1  0  0  0  0
 14 15  2  0  0  0  0
 15 16  1  0  0  0  0
 16 17  1  0  0  0  0
 17 18  2  0  0  0  0
 18 19  1  0  0  0  0
 19 20  2  0  0  0  0
 20 21  1  0  0  0  0
 21 22  2  0  0  0  0
 17 22  1  0  0  0  0
 15 23  1  0  0  0  0
 23 24  2  0  0  0  0
 12 24  1  0  0  0  0
M  END
> <COMPOUND_ID>
MMV687706

$$$$

  Mrv0541 04191616472D          

 24 27  0  0  0  0            999 V2000
    4.8946   -0.4741    0.0000 C   0  0  0  0  0  0  0  0  0  0  0  0
    4.8946   -1.2991    0.0000 C   0  0  0  0  0  0  0  0  0  0  0  0
    4.1801   -1.7116    0.0000 C   0  0  0  0  0  0  0  0  0  0  0  0
    3.4656   -1.2991    0.0000 C   0  0  0  0  0  0  0  0  0  0  0  0
    3.4656   -0.4741    0.0000 C   0  0  0  0  0  0  0  0  0  0  0  0
    4.1801   -0.0616    0.0000 O   0  0  0  0  0  0  0  0  0  0  0  0
    4.1801   -2.5366    0.0000 C   0  0  0  0  0  0  0  0  0  0  0  0
    4.8476   -3.0215    0.0000 C   0  0  0  0  0  0  0  0  0  0  0  0
    4.5926   -3.8062    0.0000 C   0  0  0  0  0  0  0  0  0  0  0  0
    3.7676   -3.8062    0.0000 N   0  0  0  0  0  0  0  0  0  0  0  0
    3.5127   -3.0215    0.0000 N   0  0  0  0  0  0  0  0  0  0  0  0
    5.0775   -4.4736    0.0000 C   0  0  0  0  0  0  0  0  0  0  0  0
    5.8980   -4.3874    0.0000 C   0  0  0  0  0  0  0  0  0  0  0  0
    6.3829   -5.0548    0.0000 C   0  0  0  0  0  0  0  0  0  0  0  0
    6.0474   -5.8085    0.0000 C   0  0  0  0  0  0  0  0  0  0  0  0
    6.5323   -6.4759    0.0000 O   0  0  0  0  0  0  0  0  0  0  0  0
    6.1968   -7.2296    0.0000 C   0  0  0  0  0  0  0  0  0  0  0  0
    6.6817   -7.8970    0.0000 C   0  0  0  0  0  0  0  0  0  0  0  0
    6.3461   -8.6507    0.0000 C   0  0  0  0  0  0  0  0  0  0  0  0
    5.5256   -8.7369    0.0000 C   0  0  0  0  0  0  0  0  0  0  0  0
    5.0407   -8.0695    0.0000 C   0  0  0  0  0  0  0  0  0  0  0  0
    5.3763   -7.3158    0.0000 C   0  0  0  0  0  0  0  0  0  0  0  0
    5.2269   -5.8947    0.0000 C   0  0  0  0  0  0  0  0  0  0  0  0
    4.7420   -5.2273    0.0000 C   0  0  0  0  0  0  0  0  0  0  0  0
  1  2  1  0  0  0  0
  2  3  1  0  0  0  0
  3  4  1  0  0  0  0
  4  5  1  0  0  0  0
  5  6  1  0  0  0  0
  1  6  1  0  0  0  0
  3  7  1  0  0  0  0
  7  8  2  0  0  0  0
  8  9  1  0  0  0  0
  9 10  2  0  0  0  0
 10 11  1  0  0  0  0
  7 11  1  0  0  0  0
  9 12  1  0  0  0  0
 12 13  2  0  0  0  0
 13 14  1  0  0  0  0
 14 15  2  0  0  0  0
 15 16  1  0  0  0  0
 16 17  1  0  0  0  0
 17 18  2  0  0  0  0
 18 19  1  0  0  0  0
 19 20  2  0  0  0  0
 20 21  1  0  0  0  0
 21 22  2  0  0  0  0
 17 22  1  0  0  0  0
 15 23  1  0  0  0  0
 23 24  2  0  0  0  0
 12 24  1  0  0  0  0
M  END
> <COMPOUND_ID>
MMV687762

$$$$

  Mrv0541 04191616472D          

 27 29  0  0  0  0            999 V2000
    0.0000    3.3000    0.0000 N   0  0  0  0  0  0  0  0  0  0  0  0
    0.0000    2.4750    0.0000 C   0  0  0  0  0  0  0  0  0  0  0  0
   -0.7145    2.0625    0.0000 N   0  0  0  0  0  0  0  0  0  0  0  0
    0.7145    2.0625    0.0000 N   0  0  0  0  0  0  0  0  0  0  0  0
    0.7145    1.2375    0.0000 C   0  0  0  0  0  0  0  0  0  0  0  0
    1.4289    0.8250    0.0000 C   0  0  0  0  0  0  0  0  0  0  0  0
    1.4289   -0.0000    0.0000 C   0  0  0  0  0  0  0  0  0  0  0  0
    0.7145   -0.4125    0.0000 C   0  0  0  0  0  0  0  0  0  0  0  0
    0.0000   -0.0000    0.0000 C   0  0  0  0  0  0  0  0  0  0  0  0
   -0.7145   -0.4125    0.0000 Cl  0  0  0  0  0  0  0  0  0  0  0  0
    0.0000    0.8250    0.0000 C   0  0  0  0  0  0  0  0  0  0  0  0
    0.7145   -1.2375    0.0000 C   0  0  0  0  0  0  0  0  0  0  0  0
    1.3819   -1.7224    0.0000 O   0  0  0  0  0  0  0  0  0  0  0  0
    1.1270   -2.5070    0.0000 C   0  0  0  0  0  0  0  0  0  0  0  0
    0.3020   -2.5070    0.0000 C   0  0  0  0  0  0  0  0  0  0  0  0
    0.0470   -1.7224    0.0000 C   0  0  0  0  0  0  0  0  0  0  0  0
    1.6119   -3.1745    0.0000 C   0  0  0  0  0  0  0  0  0  0  0  0
    2.4324   -3.0882    0.0000 C   0  0  0  0  0  0  0  0  0  0  0  0
    2.9173   -3.7557    0.0000 C   0  0  0  0  0  0  0  0  0  0  0  0
    2.5817   -4.5094    0.0000 C   0  0  0  0  0  0  0  0  0  0  0  0
    3.0667   -5.1768    0.0000 N   0  0  0  0  0  0  0  0  0  0  0  0
    2.7311   -5.9305    0.0000 C   0  0  0  0  0  0  0  0  0  0  0  0
    3.2160   -6.5979    0.0000 N   0  0  0  0  0  0  0  0  0  0  0  0
    1.9106   -6.0167    0.0000 N   0  0  0  0  0  0  0  0  0  0  0  0
    1.7613   -4.5956    0.0000 C   0  0  0  0  0  0  0  0  0  0  0  0
    1.2763   -3.9282    0.0000 C   0  0  0  0  0  0  0  0  0  0  0  0
    0.4559   -4.0144    0.0000 Cl  0  0  0  0  0  0  0  0  0  0  0  0
  1  2  1  0  0  0  0
  2  3  2  0  0  0  0
  2  4  1  0  0  0  0
  4  5  1  0  0  0  0
  5  6  2  0  0  0  0
  6  7  1  0  0  0  0
  7  8  2  0  0  0  0
  8  9  1  0  0  0  0
  9 10  1  0  0  0  0
  9 11  2  0  0  0  0
  5 11  1  0  0  0  0
  8 12  1  0  0  0  0
 12 13  1  0  0  0  0
 13 14  1  0  0  0  0
 14 15  2  0  0  0  0
 15 16  1  0  0  0  0
 12 16  2  0  0  0  0
 14 17  1  0  0  0  0
 17 18  2  0  0  0  0
 18 19  1  0  0  0  0
 19 20  2  0  0  0  0
 20 21  1  0  0  0  0
 21 22  1  0  0  0  0
 22 23  2  0  0  0  0
 22 24  1  0  0  0  0
 20 25  1  0  0  0  0
 25 26  2  0  0  0  0
 17 26  1  0  0  0  0
 26 27  1  0  0  0  0
M  END
> <COMPOUND_ID>
MMV688179

$$$$

  Mrv0541 04191616472D          

 32 35  0  0  0  0            999 V2000
    6.3235   -2.2473    0.0000 C   0  0  0  0  0  0  0  0  0  0  0  0
    6.3235   -3.0723    0.0000 C   0  0  0  0  0  0  0  0  0  0  0  0
    6.9910   -3.5572    0.0000 N   0  0  0  0  0  0  0  0  0  0  0  0
    6.7360   -4.3419    0.0000 N   0  0  0  0  0  0  0  0  0  0  0  0
    7.2210   -5.0093    0.0000 C   0  0  0  0  0  0  0  0  0  0  0  0
    5.9110   -4.3419    0.0000 C   0  0  0  0  0  0  0  0  0  0  0  0
    5.4261   -5.0093    0.0000 C   0  0  0  0  0  0  0  0  0  0  0  0
    5.6561   -3.5572    0.0000 C   0  0  0  0  0  0  0  0  0  0  0  0
    4.8715   -3.3023    0.0000 N   0  0  0  0  0  0  0  0  0  0  0  0
    4.6999   -2.4953    0.0000 S   0  0  0  0  0  0  0  0  0  0  0  0
    5.5069   -2.3238    0.0000 O   0  0  0  0  0  0  0  0  0  0  0  0
    3.8930   -2.6669    0.0000 O   0  0  0  0  0  0  0  0  0  0  0  0
    4.5284   -1.6884    0.0000 C   0  0  0  0  0  0  0  0  0  0  0  0
    3.7438   -1.4334    0.0000 C   0  0  0  0  0  0  0  0  0  0  0  0
    3.1307   -1.9855    0.0000 Cl  0  0  0  0  0  0  0  0  0  0  0  0
    3.5723   -0.6264    0.0000 C   0  0  0  0  0  0  0  0  0  0  0  0
    4.1854   -0.0744    0.0000 C   0  0  0  0  0  0  0  0  0  0  0  0
    4.9700   -0.3294    0.0000 C   0  0  0  0  0  0  0  0  0  0  0  0
    5.1415   -1.1363    0.0000 C   0  0  0  0  0  0  0  0  0  0  0  0
    5.9261   -1.3913    0.0000 Cl  0  0  0  0  0  0  0  0  0  0  0  0
    4.0138    0.7326    0.0000 C   0  0  0  0  0  0  0  0  0  0  0  0
    3.2292    0.9875    0.0000 C   0  0  0  0  0  0  0  0  0  0  0  0
    3.0577    1.7945    0.0000 C   0  0  0  0  0  0  0  0  0  0  0  0
    3.6708    2.3465    0.0000 N   0  0  0  0  0  0  0  0  0  0  0  0
    4.4554    2.0916    0.0000 C   0  0  0  0  0  0  0  0  0  0  0  0
    4.6269    1.2846    0.0000 C   0  0  0  0  0  0  0  0  0  0  0  0
    5.0685    2.6436    0.0000 N   0  0  0  0  0  0  0  0  0  0  0  0
    4.8970    3.4506    0.0000 C   0  0  0  0  0  0  0  0  0  0  0  0
    5.5101    4.0026    0.0000 C   0  0  0  0  0  0  0  0  0  0  0  0
    6.2947    3.7477    0.0000 N   0  0  0  0  0  0  0  0  0  0  0  0
    6.4662    2.9407    0.0000 C   0  0  0  0  0  0  0  0  0  0  0  0
    5.8531    2.3887    0.0000 C   0  0  0  0  0  0  0  0  0  0  0  0
  1  2  1  0  0  0  0
  2  3  2  0  0  0  0
  3  4  1  0  0  0  0
  4  5  1  0  0  0  0
  4  6  1  0  0  0  0
  6  7  1  0  0  0  0
  6  8  2  0  0  0  0
  2  8  1  0  0  0  0
  8  9  1  0  0  0  0
  9 10  1  0  0  0  0
 10 11  2  0  0  0  0
 10 12  2  0  0  0  0
 10 13  1  0  0  0  0
 13 14  2  0  0  0  0
 14 15  1  0  0  0  0
 14 16  1  0  0  0  0
 16 17  2  0  0  0  0
 17 18  1  0  0  0  0
 18 19  2  0  0  0  0
 13 19  1  0  0  0  0
 19 20  1  0  0  0  0
 17 21  1  0  0  0  0
 21 22  2  0  0  0  0
 22 23  1  0  0  0  0
 23 24  2  0  0  0  0
 24 25  1  0  0  0  0
 25 26  2  0  0  0  0
 21 26  1  0  0  0  0
 25 27  1  0  0  0  0
 27 28  1  0  0  0  0
 28 29  1  0  0  0  0
 29 30  1  0  0  0  0
 30 31  1  0  0  0  0
 31 32  1  0  0  0  0
 27 32  1  0  0  0  0
M  END
> <COMPOUND_ID>
MMV688180

$$$$

  Mrv0541 04191616472D          

 27 29  0  0  0  0            999 V2000
    0.0000    3.3000    0.0000 N   0  0  0  0  0  0  0  0  0  0  0  0
    0.0000    2.4750    0.0000 C   0  0  0  0  0  0  0  0  0  0  0  0
   -0.7145    2.0625    0.0000 N   0  0  0  0  0  0  0  0  0  0  0  0
    0.7145    2.0625    0.0000 N   0  0  0  0  0  0  0  0  0  0  0  0
    0.7145    1.2375    0.0000 C   0  0  0  0  0  0  0  0  0  0  0  0
    1.4289    0.8250    0.0000 C   0  0  0  0  0  0  0  0  0  0  0  0
    1.4289   -0.0000    0.0000 C   0  0  0  0  0  0  0  0  0  0  0  0
    0.7145   -0.4125    0.0000 C   0  0  0  0  0  0  0  0  0  0  0  0
    0.0000   -0.0000    0.0000 C   0  0  0  0  0  0  0  0  0  0  0  0
    0.0000    0.8250    0.0000 C   0  0  0  0  0  0  0  0  0  0  0  0
   -0.7145    1.2375    0.0000 Cl  0  0  0  0  0  0  0  0  0  0  0  0
    0.7145   -1.2375    0.0000 C   0  0  0  0  0  0  0  0  0  0  0  0
    1.3819   -1.7224    0.0000 O   0  0  0  0  0  0  0  0  0  0  0  0
    1.1270   -2.5070    0.0000 C   0  0  0  0  0  0  0  0  0  0  0  0
    0.3020   -2.5070    0.0000 C   0  0  0  0  0  0  0  0  0  0  0  0
    0.0470   -1.7224    0.0000 C   0  0  0  0  0  0  0  0  0  0  0  0
    1.6119   -3.1745    0.0000 C   0  0  0  0  0  0  0  0  0  0  0  0
    2.4324   -3.0882    0.0000 C   0  0  0  0  0  0  0  0  0  0  0  0
    2.9173   -3.7557    0.0000 C   0  0  0  0  0  0  0  0  0  0  0  0
    2.5817   -4.5094    0.0000 C   0  0  0  0  0  0  0  0  0  0  0  0
    3.0667   -5.1768    0.0000 N   0  0  0  0  0  0  0  0  0  0  0  0
    2.7311   -5.9305    0.0000 C   0  0  0  0  0  0  0  0  0  0  0  0
    3.2160   -6.5979    0.0000 N   0  0  0  0  0  0  0  0  0  0  0  0
    1.9106   -6.0167    0.0000 N   0  0  0  0  0  0  0  0  0  0  0  0
    1.7613   -4.5956    0.0000 C   0  0  0  0  0  0  0  0  0  0  0  0
    1.4257   -5.3493    0.0000 Cl  0  0  0  0  0  0  0  0  0  0  0  0
    1.2763   -3.9282    0.0000 C   0  0  0  0  0  0  0  0  0  0  0  0
  1  2  1  0  0  0  0
  2  3  2  0  0  0  0
  2  4  1  0  0  0  0
  4  5  1  0  0  0  0
  5  6  2  0  0  0  0
  6  7  1  0  0  0  0
  7  8  2  0  0  0  0
  8  9  1  0  0  0  0
  9 10  2  0  0  0  0
  5 10  1  0  0  0  0
 10 11  1  0  0  0  0
  8 12  1  0  0  0  0
 12 13  1  0  0  0  0
 13 14  1  0  0  0  0
 14 15  2  0  0  0  0
 15 16  1  0  0  0  0
 12 16  2  0  0  0  0
 14 17  1  0  0  0  0
 17 18  2  0  0  0  0
 18 19  1  0  0  0  0
 19 20  2  0  0  0  0
 20 21  1  0  0  0  0
 21 22  2  0  0  0  0
 22 23  1  0  0  0  0
 22 24  1  0  0  0  0
 20 25  1  0  0  0  0
 25 26  1  0  0  0  0
 25 27  2  0  0  0  0
 17 27  1  0  0  0  0
M  END
> <COMPOUND_ID>
MMV688271

$$$$

  Mrv0541 04191616472D          

 28 31  0  0  0  0            999 V2000
    0.0000   -1.6500    0.0000 N   0  0  0  0  0  0  0  0  0  0  0  0
    0.7145   -1.2375    0.0000 C   0  0  0  0  0  0  0  0  0  0  0  0
    0.7145   -0.4125    0.0000 C   0  0  0  0  0  0  0  0  0  0  0  0
    1.4289    0.0000    0.0000 C   0  0  0  0  0  0  0  0  0  0  0  0
    2.1434   -0.4125    0.0000 C   0  0  0  0  0  0  0  0  0  0  0  0
    2.8579    0.0000    0.0000 N   0  0  0  0  0  0  0  0  0  0  0  0
    3.5724   -0.4125    0.0000 C   0  0  0  0  0  0  0  0  0  0  0  0
    3.5724   -1.2375    0.0000 N   0  0  0  0  0  0  0  0  0  0  0  0
    2.8579   -1.6500    0.0000 C   0  0  0  0  0  0  0  0  0  0  0  0
    2.8579   -2.4750    0.0000 N   0  0  0  0  0  0  0  0  0  0  0  0
    2.1434   -2.8875    0.0000 C   0  0  0  0  0  0  0  0  0  0  0  0
    2.1434   -3.7125    0.0000 C   0  0  0  0  0  0  0  0  0  0  0  0
    1.4289   -4.1250    0.0000 C   0  0  0  0  0  0  0  0  0  0  0  0
    0.7145   -3.7125    0.0000 C   0  0  0  0  0  0  0  0  0  0  0  0
   -0.0000   -4.1250    0.0000 O   0  0  0  0  0  0  0  0  0  0  0  0
   -0.0000   -4.9500    0.0000 C   0  0  0  0  0  0  0  0  0  0  0  0
   -0.7145   -5.3625    0.0000 C   0  0  0  0  0  0  0  0  0  0  0  0
   -0.7145   -6.1875    0.0000 C   0  0  0  0  0  0  0  0  0  0  0  0
   -1.4289   -6.6000    0.0000 C   0  0  0  0  0  0  0  0  0  0  0  0
   -2.1434   -6.1875    0.0000 C   0  0  0  0  0  0  0  0  0  0  0  0
   -2.1434   -5.3625    0.0000 C   0  0  0  0  0  0  0  0  0  0  0  0
   -2.8579   -4.9500    0.0000 F   0  0  0  0  0  0  0  0  0  0  0  0
   -1.4289   -4.9500    0.0000 C   0  0  0  0  0  0  0  0  0  0  0  0
    0.7145   -2.8875    0.0000 C   0  0  0  0  0  0  0  0  0  0  0  0
    0.0000   -2.4750    0.0000 Cl  0  0  0  0  0  0  0  0  0  0  0  0
    1.4289   -2.4750    0.0000 C   0  0  0  0  0  0  0  0  0  0  0  0
    2.1434   -1.2375    0.0000 C   0  0  0  0  0  0  0  0  0  0  0  0
    1.4289   -1.6500    0.0000 C   0  0  0  0  0  0  0  0  0  0  0  0
  1  2  1  0  0  0  0
  2  3  2  0  0  0  0
  3  4  1  0  0  0  0
  4  5  2  0  0  0  0
  5  6  1  0  0  0  0
  6  7  2  0  0  0  0
  7  8  1  0  0  0  0
  8  9  2  0  0  0  0
  9 10  1  0  0  0  0
 10 11  1  0  0  0  0
 11 12  2  0  0  0  0
 12 13  1  0  0  0  0
 13 14  2  0  0  0  0
 14 15  1  0  0  0  0
 15 16  1  0  0  0  0
 16 17  1  0  0  0  0
 17 18  2  0  0  0  0
 18 19  1  0  0  0  0
 19 20  2  0  0  0  0
 20 21  1  0  0  0  0
 21 22  1  0  0  0  0
 21 23  2  0  0  0  0
 17 23  1  0  0  0  0
 14 24  1  0  0  0  0
 24 25  1  0  0  0  0
 24 26  2  0  0  0  0
 11 26  1  0  0  0  0
  9 27  1  0  0  0  0
  5 27  1  0  0  0  0
 27 28  2  0  0  0  0
  2 28  1  0  0  0  0
M  END
> <COMPOUND_ID>
MMV688273

$$$$

  Mrv0541 04191616472D          

 37 41  0  0  0  0            999 V2000
   -2.8579   -7.4250    0.0000 F   0  0  0  0  0  0  0  0  0  0  0  0
   -2.8579   -6.6000    0.0000 C   0  0  0  0  0  0  0  0  0  0  0  0
   -3.5724   -6.1875    0.0000 C   0  0  0  0  0  0  0  0  0  0  0  0
   -3.5724   -5.3625    0.0000 C   0  0  0  0  0  0  0  0  0  0  0  0
   -2.8579   -4.9500    0.0000 C   0  0  0  0  0  0  0  0  0  0  0  0
   -2.1434   -5.3625    0.0000 C   0  0  0  0  0  0  0  0  0  0  0  0
   -1.4289   -4.9500    0.0000 C   0  0  0  0  0  0  0  0  0  0  0  0
   -1.4289   -4.1250    0.0000 O   0  0  0  0  0  0  0  0  0  0  0  0
   -0.7145   -3.7125    0.0000 C   0  0  0  0  0  0  0  0  0  0  0  0
   -0.7145   -2.8875    0.0000 C   0  0  0  0  0  0  0  0  0  0  0  0
    0.0000   -2.4750    0.0000 C   0  0  0  0  0  0  0  0  0  0  0  0
    0.7145   -2.8875    0.0000 C   0  0  0  0  0  0  0  0  0  0  0  0
    1.4289   -2.4750    0.0000 N   0  0  0  0  0  0  0  0  0  0  0  0
    1.4289   -1.6500    0.0000 C   0  0  0  0  0  0  0  0  0  0  0  0
    0.7145   -1.2375    0.0000 N   0  0  0  0  0  0  0  0  0  0  0  0
    0.7145   -0.4125    0.0000 C   0  0  0  0  0  0  0  0  0  0  0  0
    1.4289    0.0000    0.0000 N   0  0  0  0  0  0  0  0  0  0  0  0
    2.1434   -0.4125    0.0000 C   0  0  0  0  0  0  0  0  0  0  0  0
    2.8579    0.0000    0.0000 C   0  0  0  0  0  0  0  0  0  0  0  0
    3.5724   -0.4125    0.0000 C   0  0  0  0  0  0  0  0  0  0  0  0
    3.5724   -1.2375    0.0000 C   0  0  0  0  0  0  0  0  0  0  0  0
    4.2868   -1.6500    0.0000 N   0  0  0  0  0  0  0  0  0  0  0  0
    4.2868   -2.4750    0.0000 C   0  0  0  0  0  0  0  0  0  0  0  0
    3.5724   -2.8875    0.0000 O   0  0  0  0  0  0  0  0  0  0  0  0
    5.0013   -2.8875    0.0000 C   0  0  0  0  0  0  0  0  0  0  0  0
    5.7158   -2.4750    0.0000 N   0  0  0  0  0  0  0  0  0  0  0  0
    5.7158   -1.6500    0.0000 C   0  0  0  0  0  0  0  0  0  0  0  0
    6.4302   -1.2375    0.0000 C   0  0  0  0  0  0  0  0  0  0  0  0
    7.1447   -1.6500    0.0000 O   0  0  0  0  0  0  0  0  0  0  0  0
    7.1447   -2.4750    0.0000 C   0  0  0  0  0  0  0  0  0  0  0  0
    6.4302   -2.8875    0.0000 C   0  0  0  0  0  0  0  0  0  0  0  0
    2.8579   -1.6500    0.0000 C   0  0  0  0  0  0  0  0  0  0  0  0
    2.1434   -1.2375    0.0000 C   0  0  0  0  0  0  0  0  0  0  0  0
    0.7145   -3.7125    0.0000 C   0  0  0  0  0  0  0  0  0  0  0  0
    0.0000   -4.1250    0.0000 C   0  0  0  0  0  0  0  0  0  0  0  0
    0.0000   -4.9500    0.0000 Cl  0  0  0  0  0  0  0  0  0  0  0  0
   -2.1434   -6.1875    0.0000 C   0  0  0  0  0  0  0  0  0  0  0  0
  1  2  1  0  0  0  0
  2  3  2  0  0  0  0
  3  4  1  0  0  0  0
  4  5  2  0  0  0  0
  5  6  1  0  0  0  0
  6  7  1  0  0  0  0
  7  8  1  0  0  0  0
  8  9  1  0  0  0  0
  9 10  2  0  0  0  0
 10 11  1  0  0  0  0
 11 12  2  0  0  0  0
 12 13  1  0  0  0  0
 13 14  1  0  0  0  0
 14 15  1  0  0  0  0
 15 16  2  0  0  0  0
 16 17  1  0  0  0  0
 17 18  2  0  0  0  0
 18 19  1  0  0  0  0
 19 20  2  0  0  0  0
 20 21  1  0  0  0  0
 21 22  1  0  0  0  0
 22 23  1  0  0  0  0
 23 24  2  0  0  0  0
 23 25  1  0  0  0  0
 25 26  1  0  0  0  0
 26 27  1  0  0  0  0
 27 28  1  0  0  0  0
 28 29  1  0  0  0  0
 29 30  1  0  0  0  0
 30 31  1  0  0  0  0
 26 31  1  0  0  0  0
 21 32  2  0  0  0  0
 32 33  1  0  0  0  0
 14 33  2  0  0  0  0
 18 33  1  0  0  0  0
 12 34  1  0  0  0  0
 34 35  2  0  0  0  0
  9 35  1  0  0  0  0
 35 36  1  0  0  0  0
  6 37  2  0  0  0  0
  2 37  1  0  0  0  0
M  END
> <COMPOUND_ID>
MMV688274

$$$$

  Mrv0541 04191616472D          

 28 31  0  0  0  0            999 V2000
    0.0000    0.0000    0.0000 C   0  0  0  0  0  0  0  0  0  0  0  0
    0.7145   -0.4125    0.0000 C   0  0  0  0  0  0  0  0  0  0  0  0
    1.4289    0.0000    0.0000 N   0  0  0  0  0  0  0  0  0  0  0  0
    2.1434   -0.4125    0.0000 C   0  0  0  0  0  0  0  0  0  0  0  0
    2.8579    0.0000    0.0000 C   0  0  0  0  0  0  0  0  0  0  0  0
    3.5724   -0.4125    0.0000 C   0  0  0  0  0  0  0  0  0  0  0  0
    3.5724   -1.2375    0.0000 C   0  0  0  0  0  0  0  0  0  0  0  0
    4.2868   -1.6500    0.0000 Cl  0  0  0  0  0  0  0  0  0  0  0  0
    2.8579   -1.6500    0.0000 C   0  0  0  0  0  0  0  0  0  0  0  0
    2.1434   -1.2375    0.0000 C   0  0  0  0  0  0  0  0  0  0  0  0
    1.4289   -1.6500    0.0000 C   0  0  0  0  0  0  0  0  0  0  0  0
    1.9592   -2.2820    0.0000 O   0  0  0  0  0  0  0  0  0  0  0  0
    0.7145   -1.2375    0.0000 N   0  0  0  0  0  0  0  0  0  0  0  0
    0.0000   -1.6500    0.0000 C   0  0  0  0  0  0  0  0  0  0  0  0
   -0.7145   -1.2375    0.0000 C   0  0  0  0  0  0  0  0  0  0  0  0
   -1.4289   -1.6500    0.0000 N   0  0  0  0  0  0  0  0  0  0  0  0
   -1.4289   -2.4750    0.0000 C   0  0  0  0  0  0  0  0  0  0  0  0
   -2.1434   -2.8875    0.0000 C   0  0  0  0  0  0  0  0  0  0  0  0
   -2.8579   -2.4750    0.0000 C   0  0  0  0  0  0  0  0  0  0  0  0
   -2.8579   -1.6500    0.0000 C   0  0  0  0  0  0  0  0  0  0  0  0
   -2.1434   -1.2375    0.0000 C   0  0  0  0  0  0  0  0  0  0  0  0
    0.8986   -2.2820    0.0000 C   0  0  0  0  0  0  0  0  0  0  0  0
    1.1808   -3.0572    0.0000 C   0  0  0  0  0  0  0  0  0  0  0  0
    0.6505   -3.6892    0.0000 C   0  0  0  0  0  0  0  0  0  0  0  0
   -0.1620   -3.5460    0.0000 C   0  0  0  0  0  0  0  0  0  0  0  0
   -0.6923   -4.1779    0.0000 C   0  0  0  0  0  0  0  0  0  0  0  0
   -0.4441   -2.7707    0.0000 C   0  0  0  0  0  0  0  0  0  0  0  0
    0.0862   -2.1387    0.0000 C   0  0  0  0  0  0  0  0  0  0  0  0
  1  2  1  0  0  0  0
  2  3  2  0  0  0  0
  3  4  1  0  0  0  0
  4  5  2  0  0  0  0
  5  6  1  0  0  0  0
  6  7  2  0  0  0  0
  7  8  1  0  0  0  0
  7  9  1  0  0  0  0
  9 10  2  0  0  0  0
  4 10  1  0  0  0  0
 10 11  1  0  0  0  0
 11 12  1  0  0  0  0
 11 13  1  0  0  0  0
  2 13  1  0  0  0  0
 13 14  1  0  0  0  0
 14 15  1  0  0  0  0
 15 16  1  0  0  0  0
 16 17  1  0  0  0  0
 17 18  1  0  0  0  0
 18 19  1  0  0  0  0
 19 20  1  0  0  0  0
 20 21  1  0  0  0  0
 16 21  1  0  0  0  0
 11 22  1  0  0  0  0
 22 23  2  0  0  0  0
 23 24  1  0  0  0  0
 24 25  2  0  0  0  0
 25 26  1  0  0  0  0
 25 27  1  0  0  0  0
 27 28  2  0  0  0  0
 22 28  1  0  0  0  0
M  END
> <COMPOUND_ID>
MMV688279

$$$$

  Mrv0541 04191616472D          

 34 38  0  0  0  0            999 V2000
   -5.0013   -4.5375    0.0000 C   0  0  0  0  0  0  0  0  0  0  0  0
   -4.2868   -4.1250    0.0000 N   0  0  0  0  0  0  0  0  0  0  0  0
   -4.2868   -3.3000    0.0000 C   0  0  0  0  0  0  0  0  0  0  0  0
   -3.5724   -2.8875    0.0000 C   0  0  0  0  0  0  0  0  0  0  0  0
   -2.8579   -3.3000    0.0000 N   0  0  0  0  0  0  0  0  0  0  0  0
   -2.8579   -4.1250    0.0000 C   0  0  0  0  0  0  0  0  0  0  0  0
   -3.5724   -4.5375    0.0000 C   0  0  0  0  0  0  0  0  0  0  0  0
   -2.1434   -2.8875    0.0000 S   0  0  0  0  0  0  0  0  0  0  0  0
   -1.7309   -3.6020    0.0000 O   0  0  0  0  0  0  0  0  0  0  0  0
   -2.5559   -2.1730    0.0000 O   0  0  0  0  0  0  0  0  0  0  0  0
   -1.4289   -2.4750    0.0000 C   0  0  0  0  0  0  0  0  0  0  0  0
   -1.4289   -1.6500    0.0000 C   0  0  0  0  0  0  0  0  0  0  0  0
   -0.7145   -1.2375    0.0000 C   0  0  0  0  0  0  0  0  0  0  0  0
    0.0000   -1.6500    0.0000 C   0  0  0  0  0  0  0  0  0  0  0  0
    0.0000   -2.4750    0.0000 C   0  0  0  0  0  0  0  0  0  0  0  0
   -0.7145   -2.8875    0.0000 C   0  0  0  0  0  0  0  0  0  0  0  0
    0.7145   -1.2375    0.0000 C   0  0  0  0  0  0  0  0  0  0  0  0
    0.7145   -0.4125    0.0000 C   0  0  0  0  0  0  0  0  0  0  0  0
    1.4289    0.0000    0.0000 C   0  0  0  0  0  0  0  0  0  0  0  0
    2.1434   -0.4125    0.0000 C   0  0  0  0  0  0  0  0  0  0  0  0
    2.8579    0.0000    0.0000 C   0  0  0  0  0  0  0  0  0  0  0  0
    2.8579    0.8250    0.0000 N   0  0  0  0  0  0  0  0  0  0  0  0
    3.5724    1.2375    0.0000 C   0  0  0  0  0  0  0  0  0  0  0  0
    3.5724    2.0625    0.0000 N   0  0  0  0  0  0  0  0  0  0  0  0
    4.2868    2.4750    0.0000 C   0  0  0  0  0  0  0  0  0  0  0  0
    5.0013    2.0625    0.0000 C   0  0  0  0  0  0  0  0  0  0  0  0
    5.7158    2.4750    0.0000 Cl  0  0  0  0  0  0  0  0  0  0  0  0
    5.0013    1.2375    0.0000 C   0  0  0  0  0  0  0  0  0  0  0  0
    4.2868    0.8250    0.0000 N   0  0  0  0  0  0  0  0  0  0  0  0
    3.5724   -0.4125    0.0000 C   0  0  0  0  0  0  0  0  0  0  0  0
    3.5724   -1.2375    0.0000 C   0  0  0  0  0  0  0  0  0  0  0  0
    2.8579   -1.6500    0.0000 N   0  0  0  0  0  0  0  0  0  0  0  0
    2.1434   -1.2375    0.0000 C   0  0  0  0  0  0  0  0  0  0  0  0
    1.4289   -1.6500    0.0000 C   0  0  0  0  0  0  0  0  0  0  0  0
  1  2  1  0  0  0  0
  2  3  1  0  0  0  0
  3  4  1  0  0  0  0
  4  5  1  0  0  0  0
  5  6  1  0  0  0  0
  6  7  1  0  0  0  0
  2  7  1  0  0  0  0
  5  8  1  0  0  0  0
  8  9  2  0  0  0  0
  8 10  2  0  0  0  0
  8 11  1  0  0  0  0
 11 12  2  0  0  0  0
 12 13  1  0  0  0  0
 13 14  2  0  0  0  0
 14 15  1  0  0  0  0
 15 16  2  0  0  0  0
 11 16  1  0  0  0  0
 14 17  1  0  0  0  0
 17 18  2  0  0  0  0
 18 19  1  0  0  0  0
 19 20  2  0  0  0  0
 20 21  1  0  0  0  0
 21 22  1  0  0  0  0
 22 23  1  0  0  0  0
 23 24  2  0  0  0  0
 24 25  1  0  0  0  0
 25 26  2  0  0  0  0
 26 27  1  0  0  0  0
 26 28  1  0  0  0  0
 28 29  2  0  0  0  0
 23 29  1  0  0  0  0
 21 30  2  0  0  0  0
 30 31  1  0  0  0  0
 31 32  2  0  0  0  0
 32 33  1  0  0  0  0
 20 33  1  0  0  0  0
 33 34  2  0  0  0  0
 17 34  1  0  0  0  0
M  END
> <COMPOUND_ID>
MMV688283

$$$$

  Mrv0541 04191616472D          

 31 34  0  0  0  0            999 V2000
    4.2827    0.0407    0.0000 C   0  0  0  0  0  0  0  0  0  0  0  0
    4.1112   -0.7663    0.0000 O   0  0  0  0  0  0  0  0  0  0  0  0
    3.3266   -1.0212    0.0000 C   0  0  0  0  0  0  0  0  0  0  0  0
    3.1550   -1.8282    0.0000 C   0  0  0  0  0  0  0  0  0  0  0  0
    2.3704   -2.0831    0.0000 C   0  0  0  0  0  0  0  0  0  0  0  0
    1.7573   -1.5311    0.0000 C   0  0  0  0  0  0  0  0  0  0  0  0
    1.9289   -0.7241    0.0000 C   0  0  0  0  0  0  0  0  0  0  0  0
    2.7135   -0.4692    0.0000 C   0  0  0  0  0  0  0  0  0  0  0  0
    2.8850    0.3378    0.0000 O   0  0  0  0  0  0  0  0  0  0  0  0
    3.6696    0.5927    0.0000 C   0  0  0  0  0  0  0  0  0  0  0  0
    3.8412    1.3997    0.0000 C   0  0  0  0  0  0  0  0  0  0  0  0
    3.2281    1.9517    0.0000 C   0  0  0  0  0  0  0  0  0  0  0  0
    3.3996    2.7587    0.0000 C   0  0  0  0  0  0  0  0  0  0  0  0
    4.1842    3.0137    0.0000 C   0  0  0  0  0  0  0  0  0  0  0  0
    4.7973    2.4616    0.0000 C   0  0  0  0  0  0  0  0  0  0  0  0
    4.6258    1.6546    0.0000 N   0  0  0  0  0  0  0  0  0  0  0  0
    0.9727   -1.7860    0.0000 C   0  0  0  0  0  0  0  0  0  0  0  0
    0.7178   -2.5706    0.0000 N   0  0  0  0  0  0  0  0  0  0  0  0
   -0.1072   -2.5706    0.0000 N   0  0  0  0  0  0  0  0  0  0  0  0
   -0.5922   -3.2381    0.0000 C   0  0  0  0  0  0  0  0  0  0  0  0
   -0.2012   -3.9646    0.0000 C   0  0  0  0  0  0  0  0  0  0  0  0
   -0.5255   -4.7232    0.0000 C   0  0  0  0  0  0  0  0  0  0  0  0
   -1.3207   -4.9427    0.0000 C   0  0  0  0  0  0  0  0  0  0  0  0
   -1.9882   -4.4577    0.0000 C   0  0  0  0  0  0  0  0  0  0  0  0
   -2.0252   -3.6336    0.0000 C   0  0  0  0  0  0  0  0  0  0  0  0
   -1.4039   -3.0908    0.0000 C   0  0  0  0  0  0  0  0  0  0  0  0
   -0.3622   -1.7860    0.0000 C   0  0  0  0  0  0  0  0  0  0  0  0
   -1.1468   -1.5311    0.0000 O   0  0  0  0  0  0  0  0  0  0  0  0
    0.3053   -1.3011    0.0000 C   0  0  0  0  0  0  0  0  0  0  0  0
   -0.0997   -0.5823    0.0000 C   0  0  0  0  0  0  0  0  0  0  0  0
    0.7103   -0.5823    0.0000 C   0  0  0  0  0  0  0  0  0  0  0  0
  1  2  1  0  0  0  0
  2  3  1  0  0  0  0
  3  4  2  0  0  0  0
  4  5  1  0  0  0  0
  5  6  2  0  0  0  0
  6  7  1  0  0  0  0
  7  8  2  0  0  0  0
  3  8  1  0  0  0  0
  8  9  1  0  0  0  0
  9 10  1  0  0  0  0
 10 11  1  0  0  0  0
 11 12  2  0  0  0  0
 12 13  1  0  0  0  0
 13 14  2  0  0  0  0
 14 15  1  0  0  0  0
 15 16  2  0  0  0  0
 11 16  1  0  0  0  0
  6 17  1  0  0  0  0
 17 18  2  0  0  0  0
 18 19  1  0  0  0  0
 19 20  1  0  0  0  0
 20 21  1  0  0  0  0
 21 22  1  0  0  0  0
 22 23  1  0  0  0  0
 23 24  1  0  0  0  0
 24 25  1  0  0  0  0
 25 26  1  0  0  0  0
 20 26  1  0  0  0  0
 19 27  1  0  0  0  0
 27 28  2  0  0  0  0
 27 29  1  0  0  0  0
 17 29  1  0  0  0  0
 29 30  1  0  0  0  0
 29 31  1  0  0  0  0
M  END
> <COMPOUND_ID>
MMV688360

$$$$

  Mrv0541 04191616472D          

 27 31  0  0  0  0            999 V2000
   -1.6377   -6.3123    0.0000 C   0  0  0  0  0  0  0  0  0  0  0  0
   -2.4627   -6.3123    0.0000 C   0  0  0  0  0  0  0  0  0  0  0  0
   -2.7177   -5.5277    0.0000 N   0  0  0  0  0  0  0  0  0  0  0  0
   -2.0502   -5.0428    0.0000 C   0  0  0  0  0  0  0  0  0  0  0  0
   -1.3828   -5.5277    0.0000 N   0  0  0  0  0  0  0  0  0  0  0  0
   -2.0502   -4.2178    0.0000 C   0  0  0  0  0  0  0  0  0  0  0  0
   -2.7647   -3.8053    0.0000 C   0  0  0  0  0  0  0  0  0  0  0  0
   -2.7647   -2.9803    0.0000 C   0  0  0  0  0  0  0  0  0  0  0  0
   -2.0502   -2.5678    0.0000 C   0  0  0  0  0  0  0  0  0  0  0  0
   -1.3357   -2.9803    0.0000 C   0  0  0  0  0  0  0  0  0  0  0  0
   -1.3357   -3.8053    0.0000 C   0  0  0  0  0  0  0  0  0  0  0  0
   -2.0502   -1.7428    0.0000 C   0  0  0  0  0  0  0  0  0  0  0  0
   -2.7177   -1.2578    0.0000 C   0  0  0  0  0  0  0  0  0  0  0  0
   -2.4627   -0.4732    0.0000 C   0  0  0  0  0  0  0  0  0  0  0  0
   -1.6377   -0.4732    0.0000 O   0  0  0  0  0  0  0  0  0  0  0  0
   -1.3828   -1.2578    0.0000 N   0  0  0  0  0  0  0  0  0  0  0  0
   -2.9476    0.1942    0.0000 C   0  0  0  0  0  0  0  0  0  0  0  0
   -3.7681    0.1080    0.0000 C   0  0  0  0  0  0  0  0  0  0  0  0
   -4.2530    0.7754    0.0000 C   0  0  0  0  0  0  0  0  0  0  0  0
   -3.9175    1.5291    0.0000 C   0  0  0  0  0  0  0  0  0  0  0  0
   -3.0970    1.6153    0.0000 C   0  0  0  0  0  0  0  0  0  0  0  0
   -2.6121    0.9479    0.0000 C   0  0  0  0  0  0  0  0  0  0  0  0
   -2.7615    2.3690    0.0000 C   0  0  0  0  0  0  0  0  0  0  0  0
   -3.1740    3.0835    0.0000 N   0  0  0  0  0  0  0  0  0  0  0  0
   -2.6219    3.6966    0.0000 C   0  0  0  0  0  0  0  0  0  0  0  0
   -1.8682    3.3610    0.0000 C   0  0  0  0  0  0  0  0  0  0  0  0
   -1.9545    2.5405    0.0000 N   0  0  0  0  0  0  0  0  0  0  0  0
  1  2  1  0  0  0  0
  2  3  1  0  0  0  0
  3  4  2  0  0  0  0
  4  5  1  0  0  0  0
  1  5  1  0  0  0  0
  4  6  1  0  0  0  0
  6  7  2  0  0  0  0
  7  8  1  0  0  0  0
  8  9  2  0  0  0  0
  9 10  1  0  0  0  0
 10 11  2  0  0  0  0
  6 11  1  0  0  0  0
  9 12  1  0  0  0  0
 12 13  1  0  0  0  0
 13 14  2  0  0  0  0
 14 15  1  0  0  0  0
 15 16  1  0  0  0  0
 12 16  2  0  0  0  0
 14 17  1  0  0  0  0
 17 18  2  0  0  0  0
 18 19  1  0  0  0  0
 19 20  2  0  0  0  0
 20 21  1  0  0  0  0
 21 22  2  0  0  0  0
 17 22  1  0  0  0  0
 21 23  1  0  0  0  0
 23 24  2  0  0  0  0
 24 25  1  0  0  0  0
 25 26  1  0  0  0  0
 26 27  1  0  0  0  0
 23 27  1  0  0  0  0
M  END
> <COMPOUND_ID>
MMV688361

$$$$

  Mrv0541 04191616472D          

 27 31  0  0  0  0            999 V2000
    2.5645    2.4750    0.0000 C   0  0  0  0  0  0  0  0  0  0  0  0
    3.2789    2.0625    0.0000 O   0  0  0  0  0  0  0  0  0  0  0  0
    3.2789    1.2375    0.0000 C   0  0  0  0  0  0  0  0  0  0  0  0
    3.9934    0.8250    0.0000 C   0  0  0  0  0  0  0  0  0  0  0  0
    3.9934    0.0000    0.0000 C   0  0  0  0  0  0  0  0  0  0  0  0
    3.2789   -0.4125    0.0000 C   0  0  0  0  0  0  0  0  0  0  0  0
    2.5645    0.0000    0.0000 C   0  0  0  0  0  0  0  0  0  0  0  0
    1.7798   -0.2549    0.0000 C   0  0  0  0  0  0  0  0  0  0  0  0
    1.2949    0.4125    0.0000 C   0  0  0  0  0  0  0  0  0  0  0  0
    1.7798    1.0799    0.0000 O   0  0  0  0  0  0  0  0  0  0  0  0
    2.5645    0.8250    0.0000 C   0  0  0  0  0  0  0  0  0  0  0  0
    0.4699    0.4125    0.0000 C   0  0  0  0  0  0  0  0  0  0  0  0
    0.0574   -0.3020    0.0000 C   0  0  0  0  0  0  0  0  0  0  0  0
   -0.7676   -0.3020    0.0000 C   0  0  0  0  0  0  0  0  0  0  0  0
   -1.1801    0.4125    0.0000 C   0  0  0  0  0  0  0  0  0  0  0  0
   -0.7676    1.1270    0.0000 C   0  0  0  0  0  0  0  0  0  0  0  0
    0.0574    1.1270    0.0000 C   0  0  0  0  0  0  0  0  0  0  0  0
   -2.0051    0.4125    0.0000 C   0  0  0  0  0  0  0  0  0  0  0  0
   -2.4900   -0.2549    0.0000 N   0  0  0  0  0  0  0  0  0  0  0  0
   -3.2746   -0.0000    0.0000 C   0  0  0  0  0  0  0  0  0  0  0  0
   -3.2746    0.8250    0.0000 C   0  0  0  0  0  0  0  0  0  0  0  0
   -2.4900    1.0799    0.0000 N   0  0  0  0  0  0  0  0  0  0  0  0
    4.7079   -0.4125    0.0000 C   0  0  0  0  0  0  0  0  0  0  0  0
    5.4615   -0.0769    0.0000 N   0  0  0  0  0  0  0  0  0  0  0  0
    6.0136   -0.6900    0.0000 C   0  0  0  0  0  0  0  0  0  0  0  0
    5.6011   -1.4045    0.0000 C   0  0  0  0  0  0  0  0  0  0  0  0
    4.7941   -1.2330    0.0000 N   0  0  0  0  0  0  0  0  0  0  0  0
  1  2  1  0  0  0  0
  2  3  1  0  0  0  0
  3  4  1  0  0  0  0
  4  5  2  0  0  0  0
  5  6  1  0  0  0  0
  6  7  2  0  0  0  0
  7  8  1  0  0  0  0
  8  9  2  0  0  0  0
  9 10  1  0  0  0  0
 10 11  1  0  0  0  0
  3 11  2  0  0  0  0
  7 11  1  0  0  0  0
  9 12  1  0  0  0  0
 12 13  2  0  0  0  0
 13 14  1  0  0  0  0
 14 15  2  0  0  0  0
 15 16  1  0  0  0  0
 16 17  2  0  0  0  0
 12 17  1  0  0  0  0
 15 18  1  0  0  0  0
 18 19  2  0  0  0  0
 19 20  1  0  0  0  0
 20 21  1  0  0  0  0
 21 22  1  0  0  0  0
 18 22  1  0  0  0  0
  5 23  1  0  0  0  0
 23 24  2  0  0  0  0
 24 25  1  0  0  0  0
 25 26  1  0  0  0  0
 26 27  1  0  0  0  0
 23 27  1  0  0  0  0
M  END
> <COMPOUND_ID>
MMV688362

$$$$

  Mrv0541 04191616472D          

 29 31  0  0  0  0            999 V2000
    0.0000   -6.6000    0.0000 N   0  0  0  0  0  0  0  0  0  0  0  0
    0.7145   -6.1875    0.0000 C   0  0  0  0  0  0  0  0  0  0  0  0
    0.7145   -5.3625    0.0000 C   0  0  0  0  0  0  0  0  0  0  0  0
    1.4289   -4.9500    0.0000 N   0  0  0  0  0  0  0  0  0  0  0  0
    2.1434   -5.3625    0.0000 C   0  0  0  0  0  0  0  0  0  0  0  0
    2.1434   -6.1875    0.0000 O   0  0  0  0  0  0  0  0  0  0  0  0
    2.8579   -4.9500    0.0000 C   0  0  0  0  0  0  0  0  0  0  0  0
    2.8579   -4.1250    0.0000 C   0  0  0  0  0  0  0  0  0  0  0  0
    3.5724   -3.7125    0.0000 C   0  0  0  0  0  0  0  0  0  0  0  0
    4.2868   -4.1250    0.0000 C   0  0  0  0  0  0  0  0  0  0  0  0
    5.0013   -3.7125    0.0000 Cl  0  0  0  0  0  0  0  0  0  0  0  0
    4.2868   -4.9500    0.0000 C   0  0  0  0  0  0  0  0  0  0  0  0
    3.5724   -5.3625    0.0000 C   0  0  0  0  0  0  0  0  0  0  0  0
    3.5724   -6.1875    0.0000 Cl  0  0  0  0  0  0  0  0  0  0  0  0
    1.4289   -4.1250    0.0000 C   0  0  0  0  0  0  0  0  0  0  0  0
    0.7145   -3.7125    0.0000 C   0  0  0  0  0  0  0  0  0  0  0  0
    0.7145   -2.8875    0.0000 C   0  0  0  0  0  0  0  0  0  0  0  0
    1.4289   -2.4750    0.0000 C   0  0  0  0  0  0  0  0  0  0  0  0
    1.4289   -1.6500    0.0000 O   0  0  0  0  0  0  0  0  0  0  0  0
    0.7145   -1.2375    0.0000 C   0  0  0  0  0  0  0  0  0  0  0  0
    0.7145   -0.4125    0.0000 C   0  0  0  0  0  0  0  0  0  0  0  0
    0.0000    0.0000    0.0000 C   0  0  0  0  0  0  0  0  0  0  0  0
    0.0000    0.8250    0.0000 C   0  0  0  0  0  0  0  0  0  0  0  0
    0.7145    1.2375    0.0000 C   0  0  0  0  0  0  0  0  0  0  0  0
    0.7145    2.0625    0.0000 Cl  0  0  0  0  0  0  0  0  0  0  0  0
    1.4289    0.8250    0.0000 C   0  0  0  0  0  0  0  0  0  0  0  0
    1.4289   -0.0000    0.0000 C   0  0  0  0  0  0  0  0  0  0  0  0
    2.1434   -2.8875    0.0000 C   0  0  0  0  0  0  0  0  0  0  0  0
    2.1434   -3.7125    0.0000 C   0  0  0  0  0  0  0  0  0  0  0  0
  1  2  1  0  0  0  0
  2  3  1  0  0  0  0
  3  4  1  0  0  0  0
  4  5  1  0  0  0  0
  5  6  2  0  0  0  0
  5  7  1  0  0  0  0
  7  8  2  0  0  0  0
  8  9  1  0  0  0  0
  9 10  2  0  0  0  0
 10 11  1  0  0  0  0
 10 12  1  0  0  0  0
 12 13  2  0  0  0  0
  7 13  1  0  0  0  0
 13 14  1  0  0  0  0
  4 15  1  0  0  0  0
 15 16  2  0  0  0  0
 16 17  1  0  0  0  0
 17 18  2  0  0  0  0
 18 19  1  0  0  0  0
 19 20  1  0  0  0  0
 20 21  1  0  0  0  0
 21 22  2  0  0  0  0
 22 23  1  0  0  0  0
 23 24  2  0  0  0  0
 24 25  1  0  0  0  0
 24 26  1  0  0  0  0
 26 27  2  0  0  0  0
 21 27  1  0  0  0  0
 18 28  1  0  0  0  0
 28 29  2  0  0  0  0
 15 29  1  0  0  0  0
M  END
> <COMPOUND_ID>
MMV688371

$$$$

  Mrv0541 04191616472D          

 29 33  0  0  0  0            999 V2000
   -0.7145   -1.2375    0.0000 C   0  0  0  0  0  0  0  0  0  0  0  0
   -0.7145   -0.4125    0.0000 O   0  0  0  0  0  0  0  0  0  0  0  0
    0.0000   -0.0000    0.0000 C   0  0  0  0  0  0  0  0  0  0  0  0
    0.0000    0.8250    0.0000 C   0  0  0  0  0  0  0  0  0  0  0  0
    0.7145    1.2375    0.0000 C   0  0  0  0  0  0  0  0  0  0  0  0
    1.4289    0.8250    0.0000 C   0  0  0  0  0  0  0  0  0  0  0  0
    1.4289   -0.0000    0.0000 C   0  0  0  0  0  0  0  0  0  0  0  0
    0.7145   -0.4125    0.0000 C   0  0  0  0  0  0  0  0  0  0  0  0
    0.7145   -1.2375    0.0000 C   0  0  0  0  0  0  0  0  0  0  0  0
    1.3819   -1.7224    0.0000 C   0  0  0  0  0  0  0  0  0  0  0  0
    1.1270   -2.5070    0.0000 N   0  0  0  0  0  0  0  0  0  0  0  0
    0.3020   -2.5070    0.0000 N   0  0  0  0  0  0  0  0  0  0  0  0
    0.0470   -1.7224    0.0000 N   0  0  0  0  0  0  0  0  0  0  0  0
    1.6119   -3.1745    0.0000 C   0  0  0  0  0  0  0  0  0  0  0  0
    2.4324   -3.0882    0.0000 C   0  0  0  0  0  0  0  0  0  0  0  0
    2.9173   -3.7557    0.0000 C   0  0  0  0  0  0  0  0  0  0  0  0
    2.5817   -4.5094    0.0000 C   0  0  0  0  0  0  0  0  0  0  0  0
    1.7613   -4.5956    0.0000 C   0  0  0  0  0  0  0  0  0  0  0  0
    1.2763   -3.9282    0.0000 C   0  0  0  0  0  0  0  0  0  0  0  0
    1.4257   -5.3493    0.0000 C   0  0  0  0  0  0  0  0  0  0  0  0
    1.8382   -6.0637    0.0000 N   0  0  0  0  0  0  0  0  0  0  0  0
    1.2862   -6.6768    0.0000 C   0  0  0  0  0  0  0  0  0  0  0  0
    0.5325   -6.3413    0.0000 C   0  0  0  0  0  0  0  0  0  0  0  0
    0.6187   -5.5208    0.0000 N   0  0  0  0  0  0  0  0  0  0  0  0
    0.7145    2.0625    0.0000 C   0  0  0  0  0  0  0  0  0  0  0  0
    0.0470    2.5474    0.0000 N   0  0  0  0  0  0  0  0  0  0  0  0
    0.3020    3.3320    0.0000 C   0  0  0  0  0  0  0  0  0  0  0  0
    1.1270    3.3320    0.0000 C   0  0  0  0  0  0  0  0  0  0  0  0
    1.3819    2.5474    0.0000 N   0  0  0  0  0  0  0  0  0  0  0  0
  1  2  1  0  0  0  0
  2  3  1  0  0  0  0
  3  4  2  0  0  0  0
  4  5  1  0  0  0  0
  5  6  2  0  0  0  0
  6  7  1  0  0  0  0
  7  8  2  0  0  0  0
  3  8  1  0  0  0  0
  8  9  1  0  0  0  0
  9 10  2  0  0  0  0
 10 11  1  0  0  0  0
 11 12  1  0  0  0  0
 12 13  2  0  0  0  0
  9 13  1  0  0  0  0
 11 14  1  0  0  0  0
 14 15  2  0  0  0  0
 15 16  1  0  0  0  0
 16 17  2  0  0  0  0
 17 18  1  0  0  0  0
 18 19  2  0  0  0  0
 14 19  1  0  0  0  0
 18 20  1  0  0  0  0
 20 21  2  0  0  0  0
 21 22  1  0  0  0  0
 22 23  1  0  0  0  0
 23 24  1  0  0  0  0
 20 24  1  0  0  0  0
  5 25  1  0  0  0  0
 25 26  2  0  0  0  0
 26 27  1  0  0  0  0
 27 28  1  0  0  0  0
 28 29  1  0  0  0  0
 25 29  1  0  0  0  0
M  END
> <COMPOUND_ID>
MMV688407

$$$$

  Mrv0541 04191616472D          

 27 29  0  0  0  0            999 V2000
    1.4289   -4.9500    0.0000 C   0  0  0  0  0  0  0  0  0  0  0  0
    2.1434   -5.3625    0.0000 N   0  0  0  0  0  0  0  0  0  0  0  0
    2.1434   -6.1875    0.0000 C   0  0  0  0  0  0  0  0  0  0  0  0
    2.8579   -4.9500    0.0000 C   0  0  0  0  0  0  0  0  0  0  0  0
    3.5724   -5.3625    0.0000 C   0  0  0  0  0  0  0  0  0  0  0  0
    3.5724   -6.1875    0.0000 O   0  0  0  0  0  0  0  0  0  0  0  0
    4.2868   -4.9500    0.0000 N   0  0  0  0  0  0  0  0  0  0  0  0
    5.0013   -5.3625    0.0000 C   0  0  0  0  0  0  0  0  0  0  0  0
    5.7158   -4.9500    0.0000 C   0  0  0  0  0  0  0  0  0  0  0  0
    6.4302   -5.3625    0.0000 N   0  0  0  0  0  0  0  0  0  0  0  0
    7.1447   -4.9500    0.0000 C   0  0  0  0  0  0  0  0  0  0  0  0
    7.1447   -4.1250    0.0000 C   0  0  0  0  0  0  0  0  0  0  0  0
    6.4302   -3.7125    0.0000 C   0  0  0  0  0  0  0  0  0  0  0  0
    6.4302   -2.8875    0.0000 C   0  0  0  0  0  0  0  0  0  0  0  0
    7.1447   -2.4750    0.0000 C   0  0  0  0  0  0  0  0  0  0  0  0
    7.8592   -2.8875    0.0000 C   0  0  0  0  0  0  0  0  0  0  0  0
    7.8592   -3.7125    0.0000 C   0  0  0  0  0  0  0  0  0  0  0  0
    7.8592   -5.3625    0.0000 C   0  0  0  0  0  0  0  0  0  0  0  0
    8.5737   -4.9500    0.0000 C   0  0  0  0  0  0  0  0  0  0  0  0
    9.2881   -5.3625    0.0000 C   0  0  0  0  0  0  0  0  0  0  0  0
   10.0026   -4.9500    0.0000 Cl  0  0  0  0  0  0  0  0  0  0  0  0
    9.2881   -6.1875    0.0000 C   0  0  0  0  0  0  0  0  0  0  0  0
    8.5737   -6.6000    0.0000 C   0  0  0  0  0  0  0  0  0  0  0  0
    7.8592   -6.1875    0.0000 C   0  0  0  0  0  0  0  0  0  0  0  0
    7.1447   -6.6000    0.0000 N   0  0  0  0  0  0  0  0  0  0  0  0
    6.4302   -6.1875    0.0000 C   0  0  0  0  0  0  0  0  0  0  0  0
    5.7158   -6.6000    0.0000 C   0  0  0  0  0  0  0  0  0  0  0  0
  1  2  1  0  0  0  0
  2  3  1  0  0  0  0
  2  4  1  0  0  0  0
  4  5  1  0  0  0  0
  5  6  2  0  0  0  0
  5  7  1  0  0  0  0
  7  8  1  0  0  0  0
  8  9  1  0  0  0  0
  9 10  1  0  0  0  0
 10 11  1  0  0  0  0
 11 12  1  0  0  0  0
 12 13  2  0  0  0  0
 13 14  1  0  0  0  0
 14 15  2  0  0  0  0
 15 16  1  0  0  0  0
 16 17  2  0  0  0  0
 12 17  1  0  0  0  0
 11 18  1  0  0  0  0
 18 19  2  0  0  0  0
 19 20  1  0  0  0  0
 20 21  1  0  0  0  0
 20 22  2  0  0  0  0
 22 23  1  0  0  0  0
 23 24  2  0  0  0  0
 18 24  1  0  0  0  0
 24 25  1  0  0  0  0
 25 26  2  0  0  0  0
 10 26  1  0  0  0  0
 26 27  1  0  0  0  0
M  END
> <COMPOUND_ID>
MMV688410

$$$$

  Mrv0541 04191616472D          

 32 36  0  0  1  0            999 V2000
    9.2965   -1.9756    0.0000 C   0  0  0  0  0  0  0  0  0  0  0  0
    8.5397   -2.3041    0.0000 O   0  0  0  0  0  0  0  0  0  0  0  0
    7.8768   -1.8130    0.0000 C   0  0  2  0  0  0  0  0  0  0  0  0
    7.0899   -2.0606    0.0000 C   0  0  0  0  0  0  0  0  0  0  0  0
    6.6112   -1.3887    0.0000 N   0  0  0  0  0  0  0  0  0  0  0  0
    7.1023   -0.7258    0.0000 C   0  0  0  0  0  0  0  0  0  0  0  0
    7.8845   -0.9880    0.0000 C   0  0  1  0  0  0  0  0  0  0  0  0
    8.5565   -0.5094    0.0000 O   0  0  0  0  0  0  0  0  0  0  0  0
    5.7862   -1.3810    0.0000 C   0  0  0  0  0  0  0  0  0  0  0  0
    5.3671   -2.0916    0.0000 C   0  0  0  0  0  0  0  0  0  0  0  0
    4.5421   -2.0839    0.0000 C   0  0  0  0  0  0  0  0  0  0  0  0
    4.1363   -1.3656    0.0000 C   0  0  0  0  0  0  0  0  0  0  0  0
    3.3113   -1.3579    0.0000 C   0  0  0  0  0  0  0  0  0  0  0  0
    2.4864   -1.3502    0.0000 C   0  0  0  0  0  0  0  0  0  0  0  0
    1.6614   -1.3425    0.0000 C   0  0  0  0  0  0  0  0  0  0  0  0
    1.8383   -0.5367    0.0000 O   0  0  0  0  0  0  0  0  0  0  0  0
    1.8140   -2.1055    0.0000 C   0  0  0  0  0  0  0  0  0  0  0  0
    1.0655   -1.7586    0.0000 N   0  0  0  0  0  0  0  0  0  0  0  0
    0.2262   -2.1175    0.0000 C   0  0  0  0  0  0  0  0  0  0  0  0
    0.1190   -1.3621    0.0000 C   0  0  0  0  0  0  0  0  0  0  0  0
    0.9228   -1.0102    0.0000 C   0  0  0  0  0  0  0  0  0  0  0  0
    0.9605   -0.1141    0.0000 C   0  0  0  0  0  0  0  0  0  0  0  0
    1.2052   -0.7200    0.0000 C   0  0  0  0  0  0  0  0  0  0  0  0
    4.5554   -0.6550    0.0000 C   0  0  0  0  0  0  0  0  0  0  0  0
    4.1496    0.0633    0.0000 C   0  0  0  0  0  0  0  0  0  0  0  0
    4.5688    0.7739    0.0000 C   0  0  0  0  0  0  0  0  0  0  0  0
    4.1630    1.4922    0.0000 C   0  0  0  0  0  0  0  0  0  0  0  0
    4.5821    2.2028    0.0000 C   0  0  0  0  0  0  0  0  0  0  0  0
    5.4071    2.1951    0.0000 C   0  0  0  0  0  0  0  0  0  0  0  0
    5.8129    1.4768    0.0000 C   0  0  0  0  0  0  0  0  0  0  0  0
    5.3937    0.7662    0.0000 C   0  0  0  0  0  0  0  0  0  0  0  0
    5.3804   -0.6627    0.0000 N   0  0  0  0  0  0  0  0  0  0  0  0
  1  2  1  0  0  0  0
  3  2  1  6  0  0  0
  3  4  1  0  0  0  0
  4  5  1  0  0  0  0
  5  6  1  0  0  0  0
  6  7  1  0  0  0  0
  3  7  1  0  0  0  0
  7  8  1  1  0  0  0
  5  9  1  0  0  0  0
  9 10  2  0  0  0  0
 10 11  1  0  0  0  0
 11 12  2  0  0  0  0
 12 13  1  0  0  0  0
 13 14  3  0  0  0  0
 14 15  1  0  0  0  0
 15 16  1  0  0  0  0
 15 17  1  0  0  0  0
 17 18  1  0  0  0  0
 18 19  1  0  0  0  0
 19 20  1  0  0  0  0
 20 21  1  0  0  0  0
 15 21  1  0  0  0  0
 21 22  1  0  0  0  0
 22 23  1  0  0  0  0
 18 23  1  0  0  0  0
 12 24  1  0  0  0  0
 24 25  1  0  0  0  0
 25 26  1  0  0  0  0
 26 27  2  0  0  0  0
 27 28  1  0  0  0  0
 28 29  2  0  0  0  0
 29 30  1  0  0  0  0
 30 31  2  0  0  0  0
 26 31  1  0  0  0  0
 24 32  2  0  0  0  0
  9 32  1  0  0  0  0
M  END
> <COMPOUND_ID>
MMV688415

$$$$

  Mrv0541 04191616472D          

 29 30  0  0  0  0            999 V2000
   -3.8424   -4.5829    0.0000 C   0  0  0  0  0  0  0  0  0  0  0  0
   -3.5724   -5.3625    0.0000 C   0  0  0  0  0  0  0  0  0  0  0  0
   -2.7622   -5.5184    0.0000 C   0  0  0  0  0  0  0  0  0  0  0  0
   -2.4922   -6.2980    0.0000 C   0  0  0  0  0  0  0  0  0  0  0  0
   -1.6820   -6.4539    0.0000 N   0  0  0  0  0  0  0  0  0  0  0  0
   -1.1420   -5.8302    0.0000 C   0  0  0  0  0  0  0  0  0  0  0  0
   -0.3318   -5.9861    0.0000 C   0  0  0  0  0  0  0  0  0  0  0  0
    0.2083   -5.3625    0.0000 C   0  0  0  0  0  0  0  0  0  0  0  0
    1.0184   -5.5184    0.0000 C   0  0  0  0  0  0  0  0  0  0  0  0
   -1.4120   -7.2334    0.0000 C   0  0  0  0  0  0  0  0  0  0  0  0
   -0.6019   -7.3893    0.0000 C   0  0  0  0  0  0  0  0  0  0  0  0
   -0.3318   -8.1689    0.0000 C   0  0  0  0  0  0  0  0  0  0  0  0
   -0.8719   -8.7925    0.0000 C   0  0  0  0  0  0  0  0  0  0  0  0
   -1.6820   -8.6366    0.0000 C   0  0  0  0  0  0  0  0  0  0  0  0
   -1.9521   -7.8571    0.0000 C   0  0  0  0  0  0  0  0  0  0  0  0
   -2.7622   -7.7012    0.0000 C   0  0  0  0  0  0  0  0  0  0  0  0
   -3.5724   -7.5452    0.0000 N   0  0  0  0  0  0  0  0  0  0  0  0
   -0.6019   -9.5721    0.0000 S   0  0  0  0  0  0  0  0  0  0  0  0
   -1.3814   -9.8421    0.0000 O   0  0  0  0  0  0  0  0  0  0  0  0
    0.1777   -9.3020    0.0000 O   0  0  0  0  0  0  0  0  0  0  0  0
   -0.3318  -10.3516    0.0000 N   0  0  0  0  0  0  0  0  0  0  0  0
    0.4783  -10.5075    0.0000 C   0  0  0  0  0  0  0  0  0  0  0  0
    1.0184   -9.8839    0.0000 C   0  0  0  0  0  0  0  0  0  0  0  0
    1.8285  -10.0398    0.0000 C   0  0  0  0  0  0  0  0  0  0  0  0
    2.0986  -10.8194    0.0000 C   0  0  0  0  0  0  0  0  0  0  0  0
    1.5585  -11.4430    0.0000 C   0  0  0  0  0  0  0  0  0  0  0  0
    0.7484  -11.2871    0.0000 C   0  0  0  0  0  0  0  0  0  0  0  0
   -0.0618   -6.7657    0.0000 C   0  0  0  0  0  0  0  0  0  0  0  0
    0.4783   -6.1421    0.0000 N   0  0  0  0  0  0  0  0  0  0  0  0
  1  2  1  0  0  0  0
  2  3  1  0  0  0  0
  3  4  1  0  0  0  0
  4  5  1  0  0  0  0
  5  6  1  0  0  0  0
  6  7  1  0  0  0  0
  7  8  1  0  0  0  0
  8  9  1  0  0  0  0
  5 10  1  0  0  0  0
 10 11  2  0  0  0  0
 11 12  1  0  0  0  0
 12 13  2  0  0  0  0
 13 14  1  0  0  0  0
 14 15  2  0  0  0  0
 10 15  1  0  0  0  0
 15 16  1  0  0  0  0
 16 17  3  0  0  0  0
 13 18  1  0  0  0  0
 18 19  2  0  0  0  0
 18 20  2  0  0  0  0
 18 21  1  0  0  0  0
 21 22  1  0  0  0  0
 22 23  2  0  0  0  0
 23 24  1  0  0  0  0
 24 25  2  0  0  0  0
 25 26  1  0  0  0  0
 26 27  2  0  0  0  0
 22 27  1  0  0  0  0
 11 28  1  0  0  0  0
 28 29  3  0  0  0  0
M  END
> <COMPOUND_ID>
MMV688467

$$$$

  Mrv0541 04191616472D          

 29 33  0  0  0  0            999 V2000
   -0.7145   -1.2375    0.0000 C   0  0  0  0  0  0  0  0  0  0  0  0
   -0.7145   -0.4125    0.0000 O   0  0  0  0  0  0  0  0  0  0  0  0
    0.0000   -0.0000    0.0000 C   0  0  0  0  0  0  0  0  0  0  0  0
    0.0000    0.8250    0.0000 C   0  0  0  0  0  0  0  0  0  0  0  0
    0.7145    1.2375    0.0000 C   0  0  0  0  0  0  0  0  0  0  0  0
    1.4289    0.8250    0.0000 C   0  0  0  0  0  0  0  0  0  0  0  0
    1.4289   -0.0000    0.0000 C   0  0  0  0  0  0  0  0  0  0  0  0
    0.7145   -0.4125    0.0000 C   0  0  0  0  0  0  0  0  0  0  0  0
    0.7145   -1.2375    0.0000 N   0  0  0  0  0  0  0  0  0  0  0  0
    1.3819   -1.7224    0.0000 C   0  0  0  0  0  0  0  0  0  0  0  0
    1.1270   -2.5070    0.0000 C   0  0  0  0  0  0  0  0  0  0  0  0
    0.3020   -2.5070    0.0000 N   0  0  0  0  0  0  0  0  0  0  0  0
    0.0470   -1.7224    0.0000 N   0  0  0  0  0  0  0  0  0  0  0  0
    1.6119   -3.1745    0.0000 C   0  0  0  0  0  0  0  0  0  0  0  0
    2.4324   -3.0882    0.0000 C   0  0  0  0  0  0  0  0  0  0  0  0
    2.9173   -3.7557    0.0000 C   0  0  0  0  0  0  0  0  0  0  0  0
    2.5817   -4.5094    0.0000 C   0  0  0  0  0  0  0  0  0  0  0  0
    1.7613   -4.5956    0.0000 C   0  0  0  0  0  0  0  0  0  0  0  0
    1.2763   -3.9282    0.0000 C   0  0  0  0  0  0  0  0  0  0  0  0
    1.4257   -5.3493    0.0000 C   0  0  0  0  0  0  0  0  0  0  0  0
    1.8382   -6.0637    0.0000 N   0  0  0  0  0  0  0  0  0  0  0  0
    1.2862   -6.6768    0.0000 C   0  0  0  0  0  0  0  0  0  0  0  0
    0.5325   -6.3413    0.0000 C   0  0  0  0  0  0  0  0  0  0  0  0
    0.6187   -5.5208    0.0000 N   0  0  0  0  0  0  0  0  0  0  0  0
    0.7145    2.0625    0.0000 C   0  0  0  0  0  0  0  0  0  0  0  0
    0.0470    2.5474    0.0000 N   0  0  0  0  0  0  0  0  0  0  0  0
    0.3020    3.3320    0.0000 C   0  0  0  0  0  0  0  0  0  0  0  0
    1.1270    3.3320    0.0000 C   0  0  0  0  0  0  0  0  0  0  0  0
    1.3819    2.5474    0.0000 N   0  0  0  0  0  0  0  0  0  0  0  0
  1  2  1  0  0  0  0
  2  3  1  0  0  0  0
  3  4  2  0  0  0  0
  4  5  1  0  0  0  0
  5  6  2  0  0  0  0
  6  7  1  0  0  0  0
  7  8  2  0  0  0  0
  3  8  1  0  0  0  0
  8  9  1  0  0  0  0
  9 10  1  0  0  0  0
 10 11  2  0  0  0  0
 11 12  1  0  0  0  0
 12 13  2  0  0  0  0
  9 13  1  0  0  0  0
 11 14  1  0  0  0  0
 14 15  2  0  0  0  0
 15 16  1  0  0  0  0
 16 17  2  0  0  0  0
 17 18  1  0  0  0  0
 18 19  2  0  0  0  0
 14 19  1  0  0  0  0
 18 20  1  0  0  0  0
 20 21  2  0  0  0  0
 21 22  1  0  0  0  0
 22 23  1  0  0  0  0
 23 24  1  0  0  0  0
 20 24  1  0  0  0  0
  5 25  1  0  0  0  0
 25 26  2  0  0  0  0
 26 27  1  0  0  0  0
 27 28  1  0  0  0  0
 28 29  1  0  0  0  0
 25 29  1  0  0  0  0
M  END
> <COMPOUND_ID>
MMV688474

$$$$

  Mrv0541 04191616472D          

 20 22  0  0  0  0            999 V2000
    0.0000    2.4750    0.0000 N   0  0  0  0  0  0  0  0  0  0  0  0
    0.7145    2.0625    0.0000 C   0  0  0  0  0  0  0  0  0  0  0  0
    1.4289    2.4750    0.0000 N   0  0  0  0  0  0  0  0  0  0  0  0
    0.7145    1.2375    0.0000 C   0  0  0  0  0  0  0  0  0  0  0  0
    1.4289    0.8250    0.0000 C   0  0  0  0  0  0  0  0  0  0  0  0
    1.4289   -0.0000    0.0000 C   0  0  0  0  0  0  0  0  0  0  0  0
    0.7145   -0.4125    0.0000 C   0  0  0  0  0  0  0  0  0  0  0  0
    0.0000   -0.0000    0.0000 C   0  0  0  0  0  0  0  0  0  0  0  0
    0.0000    0.8250    0.0000 C   0  0  0  0  0  0  0  0  0  0  0  0
    0.7145   -1.2375    0.0000 C   0  0  0  0  0  0  0  0  0  0  0  0
    1.3819   -1.7224    0.0000 C   0  0  0  0  0  0  0  0  0  0  0  0
    1.1270   -2.5070    0.0000 C   0  0  0  0  0  0  0  0  0  0  0  0
    0.3020   -2.5070    0.0000 O   0  0  0  0  0  0  0  0  0  0  0  0
    0.0470   -1.7224    0.0000 N   0  0  0  0  0  0  0  0  0  0  0  0
    1.6119   -3.1745    0.0000 C   0  0  0  0  0  0  0  0  0  0  0  0
    2.4324   -3.0882    0.0000 C   0  0  0  0  0  0  0  0  0  0  0  0
    2.9173   -3.7557    0.0000 C   0  0  0  0  0  0  0  0  0  0  0  0
    2.5817   -4.5094    0.0000 C   0  0  0  0  0  0  0  0  0  0  0  0
    1.7613   -4.5956    0.0000 C   0  0  0  0  0  0  0  0  0  0  0  0
    1.2763   -3.9282    0.0000 C   0  0  0  0  0  0  0  0  0  0  0  0
  1  2  1  0  0  0  0
  2  3  2  0  0  0  0
  2  4  1  0  0  0  0
  4  5  2  0  0  0  0
  5  6  1  0  0  0  0
  6  7  2  0  0  0  0
  7  8  1  0  0  0  0
  8  9  2  0  0  0  0
  4  9  1  0  0  0  0
  7 10  1  0  0  0  0
 10 11  1  0  0  0  0
 11 12  2  0  0  0  0
 12 13  1  0  0  0  0
 13 14  1  0  0  0  0
 10 14  2  0  0  0  0
 12 15  1  0  0  0  0
 15 16  2  0  0  0  0
 16 17  1  0  0  0  0
 17 18  2  0  0  0  0
 18 19  1  0  0  0  0
 19 20  2  0  0  0  0
 15 20  1  0  0  0  0
M  END
> <COMPOUND_ID>
MMV688514

$$$$

  Mrv0541 04191616472D          

 29 33  0  0  0  0            999 V2000
   -0.7145   -1.2375    0.0000 C   0  0  0  0  0  0  0  0  0  0  0  0
   -0.7145   -0.4125    0.0000 O   0  0  0  0  0  0  0  0  0  0  0  0
    0.0000   -0.0000    0.0000 C   0  0  0  0  0  0  0  0  0  0  0  0
    0.0000    0.8250    0.0000 C   0  0  0  0  0  0  0  0  0  0  0  0
    0.7145    1.2375    0.0000 C   0  0  0  0  0  0  0  0  0  0  0  0
    1.4289    0.8250    0.0000 C   0  0  0  0  0  0  0  0  0  0  0  0
    1.4289   -0.0000    0.0000 C   0  0  0  0  0  0  0  0  0  0  0  0
    0.7145   -0.4125    0.0000 C   0  0  0  0  0  0  0  0  0  0  0  0
    0.7145   -1.2375    0.0000 C   0  0  0  0  0  0  0  0  0  0  0  0
    1.3819   -1.7224    0.0000 C   0  0  0  0  0  0  0  0  0  0  0  0
    1.1270   -2.5070    0.0000 N   0  0  0  0  0  0  0  0  0  0  0  0
    0.3020   -2.5070    0.0000 N   0  0  0  0  0  0  0  0  0  0  0  0
    0.0470   -1.7224    0.0000 N   0  0  0  0  0  0  0  0  0  0  0  0
    1.6119   -3.1745    0.0000 C   0  0  0  0  0  0  0  0  0  0  0  0
    2.4324   -3.0882    0.0000 C   0  0  0  0  0  0  0  0  0  0  0  0
    2.9173   -3.7557    0.0000 C   0  0  0  0  0  0  0  0  0  0  0  0
    2.5817   -4.5094    0.0000 C   0  0  0  0  0  0  0  0  0  0  0  0
    1.7613   -4.5956    0.0000 C   0  0  0  0  0  0  0  0  0  0  0  0
    1.2763   -3.9282    0.0000 C   0  0  0  0  0  0  0  0  0  0  0  0
    1.4257   -5.3493    0.0000 C   0  0  0  0  0  0  0  0  0  0  0  0
    1.8382   -6.0637    0.0000 N   0  0  0  0  0  0  0  0  0  0  0  0
    1.2862   -6.6768    0.0000 C   0  0  0  0  0  0  0  0  0  0  0  0
    0.5325   -6.3413    0.0000 C   0  0  0  0  0  0  0  0  0  0  0  0
    0.6187   -5.5208    0.0000 N   0  0  0  0  0  0  0  0  0  0  0  0
    2.1434    1.2375    0.0000 C   0  0  0  0  0  0  0  0  0  0  0  0
    2.2296    2.0580    0.0000 N   0  0  0  0  0  0  0  0  0  0  0  0
    3.0366    2.2295    0.0000 C   0  0  0  0  0  0  0  0  0  0  0  0
    3.4491    1.5150    0.0000 C   0  0  0  0  0  0  0  0  0  0  0  0
    2.8971    0.9019    0.0000 N   0  0  0  0  0  0  0  0  0  0  0  0
  1  2  1  0  0  0  0
  2  3  1  0  0  0  0
  3  4  2  0  0  0  0
  4  5  1  0  0  0  0
  5  6  2  0  0  0  0
  6  7  1  0  0  0  0
  7  8  2  0  0  0  0
  3  8  1  0  0  0  0
  8  9  1  0  0  0  0
  9 10  2  0  0  0  0
 10 11  1  0  0  0  0
 11 12  1  0  0  0  0
 12 13  2  0  0  0  0
  9 13  1  0  0  0  0
 11 14  1  0  0  0  0
 14 15  2  0  0  0  0
 15 16  1  0  0  0  0
 16 17  2  0  0  0  0
 17 18  1  0  0  0  0
 18 19  2  0  0  0  0
 14 19  1  0  0  0  0
 18 20  1  0  0  0  0
 20 21  2  0  0  0  0
 21 22  1  0  0  0  0
 22 23  1  0  0  0  0
 23 24  1  0  0  0  0
 20 24  1  0  0  0  0
  6 25  1  0  0  0  0
 25 26  2  0  0  0  0
 26 27  1  0  0  0  0
 27 28  1  0  0  0  0
 28 29  1  0  0  0  0
 25 29  1  0  0  0  0
M  END
> <COMPOUND_ID>
MMV688547

$$$$

  Mrv0541 04191616472D          

 32 35  0  0  0  0            999 V2000
    1.7752   -4.6672    0.0000 C   0  0  0  0  0  0  0  0  0  0  0  0
    1.4546   -3.9070    0.0000 C   0  0  0  0  0  0  0  0  0  0  0  0
    0.6359   -3.8046    0.0000 C   0  0  0  0  0  0  0  0  0  0  0  0
    0.1379   -4.4624    0.0000 C   0  0  0  0  0  0  0  0  0  0  0  0
   -0.6807   -4.3600    0.0000 C   0  0  0  0  0  0  0  0  0  0  0  0
   -1.0013   -3.5999    0.0000 C   0  0  0  0  0  0  0  0  0  0  0  0
   -0.5033   -2.9421    0.0000 C   0  0  0  0  0  0  0  0  0  0  0  0
    0.3153   -3.0445    0.0000 C   0  0  0  0  0  0  0  0  0  0  0  0
    0.8133   -2.3868    0.0000 N   0  0  0  0  0  0  0  0  0  0  0  0
    0.5739   -1.5973    0.0000 C   0  0  0  0  0  0  0  0  0  0  0  0
   -0.2056   -1.3269    0.0000 C   0  0  0  0  0  0  0  0  0  0  0  0
    1.2507   -1.1256    0.0000 C   0  0  0  0  0  0  0  0  0  0  0  0
    1.9085   -1.6236    0.0000 N   0  0  0  0  0  0  0  0  0  0  0  0
    2.7333   -1.6398    0.0000 C   0  0  0  0  0  0  0  0  0  0  0  0
    3.2973   -1.0377    0.0000 C   0  0  0  0  0  0  0  0  0  0  0  0
    3.0579   -0.2482    0.0000 O   0  0  0  0  0  0  0  0  0  0  0  0
    4.1008   -1.2251    0.0000 N   0  0  0  0  0  0  0  0  0  0  0  0
    4.6648   -0.6231    0.0000 C   0  0  0  0  0  0  0  0  0  0  0  0
    5.4682   -0.8105    0.0000 C   0  0  0  0  0  0  0  0  0  0  0  0
    6.0322   -0.2084    0.0000 C   0  0  0  0  0  0  0  0  0  0  0  0
    5.7076   -1.5999    0.0000 C   0  0  0  0  0  0  0  0  0  0  0  0
    4.4253    0.1664    0.0000 C   0  0  0  0  0  0  0  0  0  0  0  0
    3.6219    0.3538    0.0000 O   0  0  0  0  0  0  0  0  0  0  0  0
    4.9894    0.7685    0.0000 O   0  0  0  0  0  0  0  0  0  0  0  0
    4.7499    1.5580    0.0000 C   0  0  0  0  0  0  0  0  0  0  0  0
    4.3402   -2.0146    0.0000 C   0  0  0  0  0  0  0  0  0  0  0  0
    5.1436   -2.2020    0.0000 O   0  0  0  0  0  0  0  0  0  0  0  0
    3.7762   -2.6167    0.0000 N   0  0  0  0  0  0  0  0  0  0  0  0
    4.0156   -3.4062    0.0000 C   0  0  0  0  0  0  0  0  0  0  0  0
    2.9727   -2.4293    0.0000 C   0  0  0  0  0  0  0  0  0  0  0  0
    2.2959   -2.9010    0.0000 N   0  0  0  0  0  0  0  0  0  0  0  0
    1.6381   -2.4030    0.0000 C   0  0  0  0  0  0  0  0  0  0  0  0
  1  2  1  0  0  0  0
  2  3  1  0  0  0  0
  3  4  2  0  0  0  0
  4  5  1  0  0  0  0
  5  6  2  0  0  0  0
  6  7  1  0  0  0  0
  7  8  2  0  0  0  0
  3  8  1  0  0  0  0
  8  9  1  0  0  0  0
  9 10  1  0  0  0  0
 10 11  1  0  0  0  0
 10 12  2  0  0  0  0
 12 13  1  0  0  0  0
 13 14  1  0  0  0  0
 14 15  1  0  0  0  0
 15 16  2  0  0  0  0
 15 17  1  0  0  0  0
 17 18  1  0  0  0  0
 18 19  1  0  0  0  0
 19 20  1  0  0  0  0
 19 21  1  0  0  0  0
 18 22  1  0  0  0  0
 22 23  2  0  0  0  0
 22 24  1  0  0  0  0
 24 25  1  0  0  0  0
 17 26  1  0  0  0  0
 26 27  2  0  0  0  0
 26 28  1  0  0  0  0
 28 29  1  0  0  0  0
 28 30  1  0  0  0  0
 14 30  2  0  0  0  0
 30 31  1  0  0  0  0
 31 32  2  0  0  0  0
  9 32  1  0  0  0  0
 13 32  1  0  0  0  0
M  END
> <COMPOUND_ID>
MMV688550

$$$$

  Mrv0541 04191616472D          

 29 30  0  0  0  0            999 V2000
   -0.7145   -1.2375    0.0000 C   0  0  0  0  0  0  0  0  0  0  0  0
   -1.4289   -1.6500    0.0000 O   0  0  0  0  0  0  0  0  0  0  0  0
   -1.4289   -2.4750    0.0000 N   0  0  0  0  0  0  0  0  0  0  0  0
   -0.7145   -2.8875    0.0000 C   0  0  0  0  0  0  0  0  0  0  0  0
    0.0000   -2.4750    0.0000 C   0  0  0  0  0  0  0  0  0  0  0  0
    0.0000   -1.6500    0.0000 O   0  0  0  0  0  0  0  0  0  0  0  0
    0.7145   -2.8875    0.0000 O   0  0  0  0  0  0  0  0  0  0  0  0
    0.7145   -3.7125    0.0000 C   0  0  0  0  0  0  0  0  0  0  0  0
   -0.7145   -3.7125    0.0000 C   0  0  0  0  0  0  0  0  0  0  0  0
    0.0000   -4.1250    0.0000 C   0  0  0  0  0  0  0  0  0  0  0  0
    0.0000   -4.9500    0.0000 C   0  0  0  0  0  0  0  0  0  0  0  0
   -0.7145   -5.3625    0.0000 C   0  0  0  0  0  0  0  0  0  0  0  0
   -1.4289   -4.9500    0.0000 C   0  0  0  0  0  0  0  0  0  0  0  0
   -1.4289   -4.1250    0.0000 C   0  0  0  0  0  0  0  0  0  0  0  0
   -2.1434   -3.7125    0.0000 C   0  0  0  0  0  0  0  0  0  0  0  0
   -2.1434   -2.8875    0.0000 O   0  0  0  0  0  0  0  0  0  0  0  0
   -2.8579   -2.4750    0.0000 N   0  0  0  0  0  0  0  0  0  0  0  0
   -2.8579   -1.6500    0.0000 C   0  0  0  0  0  0  0  0  0  0  0  0
   -2.1434   -1.2375    0.0000 C   0  0  0  0  0  0  0  0  0  0  0  0
   -3.5724   -1.2375    0.0000 C   0  0  0  0  0  0  0  0  0  0  0  0
   -4.2868   -1.6500    0.0000 C   0  0  0  0  0  0  0  0  0  0  0  0
   -5.0013   -1.2375    0.0000 C   0  0  0  0  0  0  0  0  0  0  0  0
   -5.0013   -0.4125    0.0000 C   0  0  0  0  0  0  0  0  0  0  0  0
   -4.2868    0.0000    0.0000 C   0  0  0  0  0  0  0  0  0  0  0  0
   -3.5724   -0.4125    0.0000 C   0  0  0  0  0  0  0  0  0  0  0  0
   -4.2868    0.8250    0.0000 C   0  0  0  0  0  0  0  0  0  0  0  0
   -4.2868    1.6500    0.0000 F   0  0  0  0  0  0  0  0  0  0  0  0
   -3.4618    0.8250    0.0000 F   0  0  0  0  0  0  0  0  0  0  0  0
   -5.1118    0.8250    0.0000 F   0  0  0  0  0  0  0  0  0  0  0  0
  1  2  1  0  0  0  0
  2  3  1  0  0  0  0
  3  4  2  0  0  0  0
  4  5  1  0  0  0  0
  5  6  2  0  0  0  0
  5  7  1  0  0  0  0
  7  8  1  0  0  0  0
  4  9  1  0  0  0  0
  9 10  2  0  0  0  0
 10 11  1  0  0  0  0
 11 12  2  0  0  0  0
 12 13  1  0  0  0  0
 13 14  2  0  0  0  0
  9 14  1  0  0  0  0
 14 15  1  0  0  0  0
 15 16  1  0  0  0  0
 16 17  1  0  0  0  0
 17 18  2  0  0  0  0
 18 19  1  0  0  0  0
 18 20  1  0  0  0  0
 20 21  2  0  0  0  0
 21 22  1  0  0  0  0
 22 23  2  0  0  0  0
 23 24  1  0  0  0  0
 24 25  2  0  0  0  0
 20 25  1  0  0  0  0
 24 26  1  0  0  0  0
 26 27  1  0  0  0  0
 26 28  1  0  0  0  0
 26 29  1  0  0  0  0
M  END
> <COMPOUND_ID>
MMV688754

$$$$

  Mrv0541 04191616472D          

 22 25  0  0  0  0            999 V2000
   -2.1679   -1.9354    0.0000 C   0  0  0  0  0  0  0  0  0  0  0  0
   -1.3429   -1.9354    0.0000 C   0  0  0  0  0  0  0  0  0  0  0  0
   -0.8580   -2.6029    0.0000 N   0  0  0  0  0  0  0  0  0  0  0  0
   -0.0734   -2.3479    0.0000 N   0  0  0  0  0  0  0  0  0  0  0  0
    0.6411   -2.7604    0.0000 C   0  0  0  0  0  0  0  0  0  0  0  0
    0.6411   -3.5854    0.0000 O   0  0  0  0  0  0  0  0  0  0  0  0
    1.3556   -2.3479    0.0000 C   0  0  0  0  0  0  0  0  0  0  0  0
    1.3556   -1.5229    0.0000 C   0  0  0  0  0  0  0  0  0  0  0  0
    2.0701   -1.1104    0.0000 C   0  0  0  0  0  0  0  0  0  0  0  0
    2.7845   -1.5229    0.0000 C   0  0  0  0  0  0  0  0  0  0  0  0
    2.7845   -2.3479    0.0000 C   0  0  0  0  0  0  0  0  0  0  0  0
    2.0701   -2.7604    0.0000 C   0  0  0  0  0  0  0  0  0  0  0  0
    0.6411   -1.1104    0.0000 N   0  0  0  0  0  0  0  0  0  0  0  0
   -0.0734   -1.5229    0.0000 C   0  0  0  0  0  0  0  0  0  0  0  0
   -0.8580   -1.2680    0.0000 C   0  0  0  0  0  0  0  0  0  0  0  0
   -1.1129   -0.4834    0.0000 C   0  0  0  0  0  0  0  0  0  0  0  0
   -1.9199   -0.3119    0.0000 C   0  0  0  0  0  0  0  0  0  0  0  0
   -2.1748    0.4728    0.0000 C   0  0  0  0  0  0  0  0  0  0  0  0
   -1.6228    1.0859    0.0000 C   0  0  0  0  0  0  0  0  0  0  0  0
   -1.8777    1.8705    0.0000 Cl  0  0  0  0  0  0  0  0  0  0  0  0
   -0.8158    0.9143    0.0000 C   0  0  0  0  0  0  0  0  0  0  0  0
   -0.5609    0.1297    0.0000 C   0  0  0  0  0  0  0  0  0  0  0  0
  1  2  1  0  0  0  0
  2  3  2  0  0  0  0
  3  4  1  0  0  0  0
  4  5  1  0  0  0  0
  5  6  2  0  0  0  0
  5  7  1  0  0  0  0
  7  8  2  0  0  0  0
  8  9  1  0  0  0  0
  9 10  1  0  0  0  0
 10 11  1  0  0  0  0
 11 12  1  0  0  0  0
  7 12  1  0  0  0  0
  8 13  1  0  0  0  0
 13 14  1  0  0  0  0
  4 14  1  0  0  0  0
 14 15  2  0  0  0  0
  2 15  1  0  0  0  0
 15 16  1  0  0  0  0
 16 17  2  0  0  0  0
 17 18  1  0  0  0  0
 18 19  2  0  0  0  0
 19 20  1  0  0  0  0
 19 21  1  0  0  0  0
 21 22  2  0  0  0  0
 16 22  1  0  0  0  0
M  END
> <COMPOUND_ID>
MMV688776

$$$$

  Mrv0541 04191616472D          

 22 25  0  0  0  0            999 V2000
    0.5433   -1.9354    0.0000 C   0  0  0  0  0  0  0  0  0  0  0  0
    1.3683   -1.9354    0.0000 C   0  0  0  0  0  0  0  0  0  0  0  0
    1.8532   -1.2680    0.0000 N   0  0  0  0  0  0  0  0  0  0  0  0
    2.6378   -1.5229    0.0000 N   0  0  0  0  0  0  0  0  0  0  0  0
    3.3523   -1.1104    0.0000 C   0  0  0  0  0  0  0  0  0  0  0  0
    3.3523   -0.2854    0.0000 O   0  0  0  0  0  0  0  0  0  0  0  0
    4.0668   -1.5229    0.0000 C   0  0  0  0  0  0  0  0  0  0  0  0
    4.7812   -1.1104    0.0000 C   0  0  0  0  0  0  0  0  0  0  0  0
    5.4957   -1.5229    0.0000 C   0  0  0  0  0  0  0  0  0  0  0  0
    5.4957   -2.3479    0.0000 C   0  0  0  0  0  0  0  0  0  0  0  0
    4.7812   -2.7604    0.0000 C   0  0  0  0  0  0  0  0  0  0  0  0
    4.0668   -2.3479    0.0000 C   0  0  0  0  0  0  0  0  0  0  0  0
    3.3523   -2.7604    0.0000 N   0  0  0  0  0  0  0  0  0  0  0  0
    2.6378   -2.3479    0.0000 C   0  0  0  0  0  0  0  0  0  0  0  0
    1.8532   -2.6029    0.0000 C   0  0  0  0  0  0  0  0  0  0  0  0
    1.5983   -3.3875    0.0000 C   0  0  0  0  0  0  0  0  0  0  0  0
    2.1503   -4.0006    0.0000 C   0  0  0  0  0  0  0  0  0  0  0  0
    1.8953   -4.7852    0.0000 C   0  0  0  0  0  0  0  0  0  0  0  0
    1.0884   -4.9567    0.0000 C   0  0  0  0  0  0  0  0  0  0  0  0
    0.8334   -5.7414    0.0000 F   0  0  0  0  0  0  0  0  0  0  0  0
    0.5363   -4.3437    0.0000 C   0  0  0  0  0  0  0  0  0  0  0  0
    0.7913   -3.5590    0.0000 C   0  0  0  0  0  0  0  0  0  0  0  0
  1  2  1  0  0  0  0
  2  3  2  0  0  0  0
  3  4  1  0  0  0  0
  4  5  1  0  0  0  0
  5  6  1  0  0  0  0
  5  7  2  0  0  0  0
  7  8  1  0  0  0  0
  8  9  1  0  0  0  0
  9 10  1  0  0  0  0
 10 11  1  0  0  0  0
 11 12  1  0  0  0  0
  7 12  1  0  0  0  0
 12 13  2  0  0  0  0
 13 14  1  0  0  0  0
  4 14  1  0  0  0  0
 14 15  2  0  0  0  0
  2 15  1  0  0  0  0
 15 16  1  0  0  0  0
 16 17  2  0  0  0  0
 17 18  1  0  0  0  0
 18 19  2  0  0  0  0
 19 20  1  0  0  0  0
 19 21  1  0  0  0  0
 21 22  2  0  0  0  0
 16 22  1  0  0  0  0
M  END
> <COMPOUND_ID>
MMV099637

$$$$

  Mrv0541 04191616472D          

 25 27  0  0  0  0            999 V2000
    4.1801   -4.1866    0.0000 C   0  0  0  0  0  0  0  0  0  0  0  0
    4.1801   -5.0116    0.0000 C   0  0  0  0  0  0  0  0  0  0  0  0
    4.8476   -5.4965    0.0000 O   0  0  0  0  0  0  0  0  0  0  0  0
    4.5926   -6.2812    0.0000 N   0  0  0  0  0  0  0  0  0  0  0  0
    3.7676   -6.2812    0.0000 C   0  0  0  0  0  0  0  0  0  0  0  0
    3.2827   -6.9486    0.0000 C   0  0  0  0  0  0  0  0  0  0  0  0
    3.5127   -5.4965    0.0000 C   0  0  0  0  0  0  0  0  0  0  0  0
    2.7281   -5.2416    0.0000 C   0  0  0  0  0  0  0  0  0  0  0  0
    2.5565   -4.4346    0.0000 O   0  0  0  0  0  0  0  0  0  0  0  0
    1.7719   -4.1797    0.0000 C   0  0  0  0  0  0  0  0  0  0  0  0
    1.1588   -4.7317    0.0000 C   0  0  0  0  0  0  0  0  0  0  0  0
    0.3742   -4.4768    0.0000 C   0  0  0  0  0  0  0  0  0  0  0  0
    0.2027   -3.6698    0.0000 C   0  0  0  0  0  0  0  0  0  0  0  0
    0.8158   -3.1178    0.0000 C   0  0  0  0  0  0  0  0  0  0  0  0
    1.6004   -3.3727    0.0000 C   0  0  0  0  0  0  0  0  0  0  0  0
    0.6442   -2.3108    0.0000 C   0  0  0  0  0  0  0  0  0  0  0  0
    1.2573   -1.7588    0.0000 O   0  0  0  0  0  0  0  0  0  0  0  0
   -0.1404   -2.0559    0.0000 N   0  0  0  0  0  0  0  0  0  0  0  0
   -0.3119   -1.2489    0.0000 C   0  0  0  0  0  0  0  0  0  0  0  0
   -1.0965   -0.9939    0.0000 N   0  0  0  0  0  0  0  0  0  0  0  0
   -1.2681   -0.1870    0.0000 C   0  0  0  0  0  0  0  0  0  0  0  0
   -0.6550    0.3651    0.0000 C   0  0  0  0  0  0  0  0  0  0  0  0
    0.1297    0.1101    0.0000 C   0  0  0  0  0  0  0  0  0  0  0  0
    0.3012   -0.6969    0.0000 C   0  0  0  0  0  0  0  0  0  0  0  0
    1.0858   -0.9518    0.0000 C   0  0  0  0  0  0  0  0  0  0  0  0
  1  2  1  0  0  0  0
  2  3  1  0  0  0  0
  3  4  1  0  0  0  0
  4  5  2  0  0  0  0
  5  6  1  0  0  0  0
  5  7  1  0  0  0  0
  2  7  2  0  0  0  0
  7  8  1  0  0  0  0
  8  9  1  0  0  0  0
  9 10  1  0  0  0  0
 10 11  2  0  0  0  0
 11 12  1  0  0  0  0
 12 13  2  0  0  0  0
 13 14  1  0  0  0  0
 14 15  2  0  0  0  0
 10 15  1  0  0  0  0
 14 16  1  0  0  0  0
 16 17  2  0  0  0  0
 16 18  1  0  0  0  0
 18 19  1  0  0  0  0
 19 20  2  0  0  0  0
 20 21  1  0  0  0  0
 21 22  2  0  0  0  0
 22 23  1  0  0  0  0
 23 24  2  0  0  0  0
 19 24  1  0  0  0  0
 24 25  1  0  0  0  0
M  END
> <COMPOUND_ID>
MMV688793

$$$$

  Mrv0541 04191616472D          

 22 24  0  0  0  0            999 V2000
    0.7145   -2.8875    0.0000 O   0  0  0  0  0  0  0  0  0  0  0  0
    0.7145   -2.0625    0.0000 C   0  0  0  0  0  0  0  0  0  0  0  0
    1.4289   -1.6500    0.0000 N   0  0  0  0  0  0  0  0  0  0  0  0
    2.1434   -2.0625    0.0000 C   0  0  0  0  0  0  0  0  0  0  0  0
    2.8579   -1.6500    0.0000 C   0  0  0  0  0  0  0  0  0  0  0  0
    3.5724   -2.0625    0.0000 C   0  0  0  0  0  0  0  0  0  0  0  0
    4.3260   -1.7269    0.0000 C   0  0  0  0  0  0  0  0  0  0  0  0
    4.8781   -2.3400    0.0000 C   0  0  0  0  0  0  0  0  0  0  0  0
    4.4656   -3.0545    0.0000 N   0  0  0  0  0  0  0  0  0  0  0  0
    3.6586   -2.8830    0.0000 N   0  0  0  0  0  0  0  0  0  0  0  0
    4.8011   -3.8082    0.0000 C   0  0  0  0  0  0  0  0  0  0  0  0
    5.6216   -3.8944    0.0000 C   0  0  0  0  0  0  0  0  0  0  0  0
    5.9572   -4.6481    0.0000 C   0  0  0  0  0  0  0  0  0  0  0  0
    5.4722   -5.3155    0.0000 C   0  0  0  0  0  0  0  0  0  0  0  0
    4.6518   -5.2293    0.0000 C   0  0  0  0  0  0  0  0  0  0  0  0
    4.3162   -4.4756    0.0000 C   0  0  0  0  0  0  0  0  0  0  0  0
    0.0000   -1.6500    0.0000 C   0  0  0  0  0  0  0  0  0  0  0  0
   -0.7145   -2.0625    0.0000 C   0  0  0  0  0  0  0  0  0  0  0  0
   -1.4289   -1.6500    0.0000 C   0  0  0  0  0  0  0  0  0  0  0  0
   -1.4289   -0.8250    0.0000 C   0  0  0  0  0  0  0  0  0  0  0  0
   -0.7145   -0.4125    0.0000 C   0  0  0  0  0  0  0  0  0  0  0  0
    0.0000   -0.8250    0.0000 C   0  0  0  0  0  0  0  0  0  0  0  0
  1  2  2  0  0  0  0
  2  3  1  0  0  0  0
  3  4  1  0  0  0  0
  4  5  1  0  0  0  0
  5  6  1  0  0  0  0
  6  7  1  0  0  0  0
  7  8  2  0  0  0  0
  8  9  1  0  0  0  0
  9 10  1  0  0  0  0
  6 10  2  0  0  0  0
  9 11  1  0  0  0  0
 11 12  2  0  0  0  0
 12 13  1  0  0  0  0
 13 14  2  0  0  0  0
 14 15  1  0  0  0  0
 15 16  2  0  0  0  0
 11 16  1  0  0  0  0
  2 17  1  0  0  0  0
 17 18  1  0  0  0  0
 18 19  1  0  0  0  0
 19 20  1  0  0  0  0
 20 21  1  0  0  0  0
 21 22  1  0  0  0  0
 17 22  1  0  0  0  0
M  END
> <COMPOUND_ID>
MMV688795

$$$$

  Mrv0541 04191616472D          

 26 29  0  0  0  0            999 V2000
   -5.5094   -2.0741    0.0000 F   0  0  0  0  0  0  0  0  0  0  0  0
   -4.7558   -2.4096    0.0000 C   0  0  0  0  0  0  0  0  0  0  0  0
   -4.0883   -1.9247    0.0000 C   0  0  0  0  0  0  0  0  0  0  0  0
   -3.3347   -2.2603    0.0000 C   0  0  0  0  0  0  0  0  0  0  0  0
   -3.2484   -3.0808    0.0000 C   0  0  0  0  0  0  0  0  0  0  0  0
   -3.9159   -3.5657    0.0000 C   0  0  0  0  0  0  0  0  0  0  0  0
   -4.6695   -3.2301    0.0000 C   0  0  0  0  0  0  0  0  0  0  0  0
   -2.4947   -3.4163    0.0000 C   0  0  0  0  0  0  0  0  0  0  0  0
   -1.7803   -3.0038    0.0000 O   0  0  0  0  0  0  0  0  0  0  0  0
   -1.1672   -3.5558    0.0000 C   0  0  0  0  0  0  0  0  0  0  0  0
   -1.5027   -4.3095    0.0000 C   0  0  0  0  0  0  0  0  0  0  0  0
   -2.3232   -4.2233    0.0000 C   0  0  0  0  0  0  0  0  0  0  0  0
   -0.3602   -3.3843    0.0000 C   0  0  0  0  0  0  0  0  0  0  0  0
    0.1918   -3.9974    0.0000 O   0  0  0  0  0  0  0  0  0  0  0  0
   -0.1053   -2.5997    0.0000 N   0  0  0  0  0  0  0  0  0  0  0  0
    0.7017   -2.4282    0.0000 C   0  0  0  0  0  0  0  0  0  0  0  0
    0.9566   -1.6436    0.0000 C   0  0  0  0  0  0  0  0  0  0  0  0
    0.4717   -0.9761    0.0000 N   0  0  0  0  0  0  0  0  0  0  0  0
    0.9566   -0.3087    0.0000 N   0  0  0  0  0  0  0  0  0  0  0  0
    1.7413   -0.5636    0.0000 C   0  0  0  0  0  0  0  0  0  0  0  0
    2.3863   -0.0492    0.0000 C   0  0  0  0  0  0  0  0  0  0  0  0
    3.1906   -0.2328    0.0000 C   0  0  0  0  0  0  0  0  0  0  0  0
    3.5485   -0.9761    0.0000 C   0  0  0  0  0  0  0  0  0  0  0  0
    3.1906   -1.7194    0.0000 C   0  0  0  0  0  0  0  0  0  0  0  0
    2.3863   -1.9030    0.0000 C   0  0  0  0  0  0  0  0  0  0  0  0
    1.7413   -1.3886    0.0000 N   0  0  0  0  0  0  0  0  0  0  0  0
  1  2  1  0  0  0  0
  2  3  2  0  0  0  0
  3  4  1  0  0  0  0
  4  5  2  0  0  0  0
  5  6  1  0  0  0  0
  6  7  2  0  0  0  0
  2  7  1  0  0  0  0
  5  8  1  0  0  0  0
  8  9  1  0  0  0  0
  9 10  1  0  0  0  0
 10 11  2  0  0  0  0
 11 12  1  0  0  0  0
  8 12  2  0  0  0  0
 10 13  1  0  0  0  0
 13 14  2  0  0  0  0
 13 15  1  0  0  0  0
 15 16  1  0  0  0  0
 16 17  1  0  0  0  0
 17 18  2  0  0  0  0
 18 19  1  0  0  0  0
 19 20  2  0  0  0  0
 20 21  1  0  0  0  0
 21 22  1  0  0  0  0
 22 23  1  0  0  0  0
 23 24  1  0  0  0  0
 24 25  1  0  0  0  0
 25 26  1  0  0  0  0
 17 26  1  0  0  0  0
 20 26  1  0  0  0  0
M  END
> <COMPOUND_ID>
MMV688796

$$$$

  Mrv0541 04191616472D          

 24 26  0  0  0  0            999 V2000
    1.0468   -5.8331    0.0000 C   0  0  0  0  0  0  0  0  0  0  0  0
    0.3323   -5.4206    0.0000 C   0  0  0  0  0  0  0  0  0  0  0  0
   -0.3822   -5.8331    0.0000 C   0  0  0  0  0  0  0  0  0  0  0  0
   -1.0966   -5.4206    0.0000 C   0  0  0  0  0  0  0  0  0  0  0  0
   -1.0966   -4.5956    0.0000 C   0  0  0  0  0  0  0  0  0  0  0  0
   -0.3822   -4.1831    0.0000 C   0  0  0  0  0  0  0  0  0  0  0  0
    0.3323   -4.5956    0.0000 N   0  0  0  0  0  0  0  0  0  0  0  0
    1.0468   -4.1831    0.0000 C   0  0  0  0  0  0  0  0  0  0  0  0
    1.0468   -3.3581    0.0000 O   0  0  0  0  0  0  0  0  0  0  0  0
    1.7613   -4.5956    0.0000 N   0  0  0  0  0  0  0  0  0  0  0  0
    2.4757   -4.1831    0.0000 C   0  0  0  0  0  0  0  0  0  0  0  0
    3.1902   -4.5956    0.0000 C   0  0  0  0  0  0  0  0  0  0  0  0
    3.9047   -4.1831    0.0000 C   0  0  0  0  0  0  0  0  0  0  0  0
    3.9909   -3.3626    0.0000 C   0  0  0  0  0  0  0  0  0  0  0  0
    4.7979   -3.1911    0.0000 O   0  0  0  0  0  0  0  0  0  0  0  0
    5.2104   -3.9056    0.0000 C   0  0  0  0  0  0  0  0  0  0  0  0
    4.6583   -4.5187    0.0000 N   0  0  0  0  0  0  0  0  0  0  0  0
    6.0309   -3.9918    0.0000 C   0  0  0  0  0  0  0  0  0  0  0  0
    6.5158   -3.3244    0.0000 C   0  0  0  0  0  0  0  0  0  0  0  0
    7.3363   -3.4106    0.0000 C   0  0  0  0  0  0  0  0  0  0  0  0
    7.6718   -4.1643    0.0000 C   0  0  0  0  0  0  0  0  0  0  0  0
    8.4923   -4.2505    0.0000 F   0  0  0  0  0  0  0  0  0  0  0  0
    7.1869   -4.8317    0.0000 C   0  0  0  0  0  0  0  0  0  0  0  0
    6.3664   -4.7455    0.0000 C   0  0  0  0  0  0  0  0  0  0  0  0
  1  2  1  0  0  0  0
  2  3  1  0  0  0  0
  3  4  1  0  0  0  0
  4  5  1  0  0  0  0
  5  6  1  0  0  0  0
  6  7  1  0  0  0  0
  2  7  1  0  0  0  0
  7  8  1  0  0  0  0
  8  9  2  0  0  0  0
  8 10  1  0  0  0  0
 10 11  1  0  0  0  0
 11 12  1  0  0  0  0
 12 13  1  0  0  0  0
 13 14  2  0  0  0  0
 14 15  1  0  0  0  0
 15 16  1  0  0  0  0
 16 17  2  0  0  0  0
 13 17  1  0  0  0  0
 16 18  1  0  0  0  0
 18 19  2  0  0  0  0
 19 20  1  0  0  0  0
 20 21  2  0  0  0  0
 21 22  1  0  0  0  0
 21 23  1  0  0  0  0
 23 24  2  0  0  0  0
 18 24  1  0  0  0  0
M  END
> <COMPOUND_ID>
MMV688797

$$$$

  Mrv0541 04191616472D          

 26 28  0  0  0  0            999 V2000
    2.8579    1.6500    0.0000 C   0  0  0  0  0  0  0  0  0  0  0  0
    2.8579    0.8250    0.0000 S   0  0  0  0  0  0  0  0  0  0  0  0
    3.6829    0.8250    0.0000 O   0  0  0  0  0  0  0  0  0  0  0  0
    2.0329    0.8250    0.0000 O   0  0  0  0  0  0  0  0  0  0  0  0
    2.8579    0.0000    0.0000 C   0  0  0  0  0  0  0  0  0  0  0  0
    2.1434   -0.4125    0.0000 C   0  0  0  0  0  0  0  0  0  0  0  0
    2.1434   -1.2375    0.0000 C   0  0  0  0  0  0  0  0  0  0  0  0
    2.8579   -1.6500    0.0000 C   0  0  0  0  0  0  0  0  0  0  0  0
    3.5724   -1.2375    0.0000 C   0  0  0  0  0  0  0  0  0  0  0  0
    3.5724   -0.4125    0.0000 C   0  0  0  0  0  0  0  0  0  0  0  0
    4.2868    0.0000    0.0000 C   0  0  0  0  0  0  0  0  0  0  0  0
    4.2868    0.8250    0.0000 O   0  0  0  0  0  0  0  0  0  0  0  0
    5.0013   -0.4125    0.0000 N   0  0  0  0  0  0  0  0  0  0  0  0
    5.7158    0.0000    0.0000 C   0  0  0  0  0  0  0  0  0  0  0  0
    6.4302   -0.4125    0.0000 C   0  0  0  0  0  0  0  0  0  0  0  0
    7.1447    0.0000    0.0000 C   0  0  0  0  0  0  0  0  0  0  0  0
    7.8592   -0.4125    0.0000 C   0  0  0  0  0  0  0  0  0  0  0  0
    7.8592   -1.2375    0.0000 C   0  0  0  0  0  0  0  0  0  0  0  0
    7.1447   -1.6500    0.0000 C   0  0  0  0  0  0  0  0  0  0  0  0
    6.4302   -1.2375    0.0000 C   0  0  0  0  0  0  0  0  0  0  0  0
    5.0013   -1.2375    0.0000 C   0  0  0  0  0  0  0  0  0  0  0  0
    5.7158   -1.6500    0.0000 C   0  0  0  0  0  0  0  0  0  0  0  0
    5.7158   -2.4750    0.0000 C   0  0  0  0  0  0  0  0  0  0  0  0
    5.0013   -2.8875    0.0000 C   0  0  0  0  0  0  0  0  0  0  0  0
    4.2868   -2.4750    0.0000 C   0  0  0  0  0  0  0  0  0  0  0  0
    4.2868   -1.6500    0.0000 C   0  0  0  0  0  0  0  0  0  0  0  0
  1  2  1  0  0  0  0
  2  3  2  0  0  0  0
  2  4  2  0  0  0  0
  2  5  1  0  0  0  0
  5  6  2  0  0  0  0
  6  7  1  0  0  0  0
  7  8  2  0  0  0  0
  8  9  1  0  0  0  0
  9 10  2  0  0  0  0
  5 10  1  0  0  0  0
 10 11  1  0  0  0  0
 11 12  2  0  0  0  0
 11 13  1  0  0  0  0
 13 14  1  0  0  0  0
 14 15  1  0  0  0  0
 15 16  2  0  0  0  0
 16 17  1  0  0  0  0
 17 18  2  0  0  0  0
 18 19  1  0  0  0  0
 19 20  2  0  0  0  0
 15 20  1  0  0  0  0
 13 21  1  0  0  0  0
 21 22  2  0  0  0  0
 22 23  1  0  0  0  0
 23 24  2  0  0  0  0
 24 25  1  0  0  0  0
 25 26  2  0  0  0  0
 21 26  1  0  0  0  0
M  END
> <COMPOUND_ID>
MMV688798

$$$$

  Mrv0541 04191616472D          

 27 29  0  0  0  0            999 V2000
   -2.1434   -3.7125    0.0000 C   0  0  0  0  0  0  0  0  0  0  0  0
   -2.8579   -4.1250    0.0000 C   0  0  0  0  0  0  0  0  0  0  0  0
   -2.8579   -4.9500    0.0000 C   0  0  0  0  0  0  0  0  0  0  0  0
   -2.1904   -5.4349    0.0000 N   0  0  0  0  0  0  0  0  0  0  0  0
   -2.4454   -6.2195    0.0000 N   0  0  0  0  0  0  0  0  0  0  0  0
   -1.9605   -6.8870    0.0000 C   0  0  0  0  0  0  0  0  0  0  0  0
   -3.2704   -6.2195    0.0000 C   0  0  0  0  0  0  0  0  0  0  0  0
   -3.7553   -6.8870    0.0000 C   0  0  0  0  0  0  0  0  0  0  0  0
   -3.4197   -7.6407    0.0000 O   0  0  0  0  0  0  0  0  0  0  0  0
   -4.5758   -6.8007    0.0000 N   0  0  0  0  0  0  0  0  0  0  0  0
   -5.0607   -7.4682    0.0000 C   0  0  0  0  0  0  0  0  0  0  0  0
   -5.8812   -7.3820    0.0000 C   0  0  0  0  0  0  0  0  0  0  0  0
   -6.3661   -8.0494    0.0000 C   0  0  0  0  0  0  0  0  0  0  0  0
   -7.1866   -7.9632    0.0000 C   0  0  0  0  0  0  0  0  0  0  0  0
   -7.5222   -7.2095    0.0000 C   0  0  0  0  0  0  0  0  0  0  0  0
   -8.3426   -7.1232    0.0000 O   0  0  0  0  0  0  0  0  0  0  0  0
   -8.8276   -7.7907    0.0000 C   0  0  0  0  0  0  0  0  0  0  0  0
   -8.4920   -8.5444    0.0000 C   0  0  0  0  0  0  0  0  0  0  0  0
   -8.9769   -9.2118    0.0000 C   0  0  0  0  0  0  0  0  0  0  0  0
   -9.7974   -9.1256    0.0000 C   0  0  0  0  0  0  0  0  0  0  0  0
  -10.2823   -9.7930    0.0000 C   0  0  0  0  0  0  0  0  0  0  0  0
  -10.1330   -8.3719    0.0000 C   0  0  0  0  0  0  0  0  0  0  0  0
   -9.6480   -7.7044    0.0000 C   0  0  0  0  0  0  0  0  0  0  0  0
   -7.0372   -6.5420    0.0000 C   0  0  0  0  0  0  0  0  0  0  0  0
   -6.2167   -6.6283    0.0000 C   0  0  0  0  0  0  0  0  0  0  0  0
   -3.5253   -5.4349    0.0000 C   0  0  0  0  0  0  0  0  0  0  0  0
   -4.3099   -5.1800    0.0000 Cl  0  0  0  0  0  0  0  0  0  0  0  0
  1  2  1  0  0  0  0
  2  3  1  0  0  0  0
  3  4  2  0  0  0  0
  4  5  1  0  0  0  0
  5  6  1  0  0  0  0
  5  7  1  0  0  0  0
  7  8  1  0  0  0  0
  8  9  2  0  0  0  0
  8 10  1  0  0  0  0
 10 11  1  0  0  0  0
 11 12  1  0  0  0  0
 12 13  2  0  0  0  0
 13 14  1  0  0  0  0
 14 15  2  0  0  0  0
 15 16  1  0  0  0  0
 16 17  1  0  0  0  0
 17 18  2  0  0  0  0
 18 19  1  0  0  0  0
 19 20  2  0  0  0  0
 20 21  1  0  0  0  0
 20 22  1  0  0  0  0
 22 23  2  0  0  0  0
 17 23  1  0  0  0  0
 15 24  1  0  0  0  0
 24 25  2  0  0  0  0
 12 25  1  0  0  0  0
  7 26  2  0  0  0  0
  3 26  1  0  0  0  0
 26 27  1  0  0  0  0
M  END
> <COMPOUND_ID>
MMV688934

$$$$

  Mrv0541 04191616472D          

 25 27  0  0  0  0            999 V2000
    0.6078   -2.2473    0.0000 C   0  0  0  0  0  0  0  0  0  0  0  0
    1.3222   -1.8348    0.0000 C   0  0  0  0  0  0  0  0  0  0  0  0
    1.7347   -2.5493    0.0000 C   0  0  0  0  0  0  0  0  0  0  0  0
    0.9097   -1.1203    0.0000 C   0  0  0  0  0  0  0  0  0  0  0  0
    2.0367   -1.4223    0.0000 C   0  0  0  0  0  0  0  0  0  0  0  0
    2.0367   -0.5973    0.0000 O   0  0  0  0  0  0  0  0  0  0  0  0
    2.7512   -1.8348    0.0000 C   0  0  0  0  0  0  0  0  0  0  0  0
    3.4656   -1.4223    0.0000 O   0  0  0  0  0  0  0  0  0  0  0  0
    4.1801   -1.8348    0.0000 C   0  0  0  0  0  0  0  0  0  0  0  0
    4.8946   -1.4223    0.0000 C   0  0  0  0  0  0  0  0  0  0  0  0
    5.6091   -1.8348    0.0000 C   0  0  0  0  0  0  0  0  0  0  0  0
    5.6091   -2.6598    0.0000 C   0  0  0  0  0  0  0  0  0  0  0  0
    4.8946   -3.0723    0.0000 C   0  0  0  0  0  0  0  0  0  0  0  0
    4.1801   -2.6598    0.0000 C   0  0  0  0  0  0  0  0  0  0  0  0
    6.3235   -3.0723    0.0000 C   0  0  0  0  0  0  0  0  0  0  0  0
    7.0380   -2.6598    0.0000 C   0  0  0  0  0  0  0  0  0  0  0  0
    7.7525   -3.0723    0.0000 C   0  0  0  0  0  0  0  0  0  0  0  0
    7.7525   -3.8973    0.0000 C   0  0  0  0  0  0  0  0  0  0  0  0
    7.0380   -4.3098    0.0000 C   0  0  0  0  0  0  0  0  0  0  0  0
    6.3235   -3.8973    0.0000 C   0  0  0  0  0  0  0  0  0  0  0  0
    2.7512   -2.6598    0.0000 N   0  0  0  0  0  0  0  0  0  0  0  0
    3.4186   -3.1447    0.0000 C   0  0  0  0  0  0  0  0  0  0  0  0
    3.1637   -3.9294    0.0000 N   0  0  0  0  0  0  0  0  0  0  0  0
    2.3387   -3.9294    0.0000 C   0  0  0  0  0  0  0  0  0  0  0  0
    2.0837   -3.1447    0.0000 N   0  0  0  0  0  0  0  0  0  0  0  0
  1  2  1  0  0  0  0
  2  3  1  0  0  0  0
  2  4  1  0  0  0  0
  2  5  1  0  0  0  0
  5  6  1  0  0  0  0
  5  7  1  0  0  0  0
  7  8  1  0  0  0  0
  8  9  1  0  0  0  0
  9 10  2  0  0  0  0
 10 11  1  0  0  0  0
 11 12  2  0  0  0  0
 12 13  1  0  0  0  0
 13 14  2  0  0  0  0
  9 14  1  0  0  0  0
 12 15  1  0  0  0  0
 15 16  2  0  0  0  0
 16 17  1  0  0  0  0
 17 18  2  0  0  0  0
 18 19  1  0  0  0  0
 19 20  2  0  0  0  0
 15 20  1  0  0  0  0
  7 21  1  0  0  0  0
 21 22  1  0  0  0  0
 22 23  2  0  0  0  0
 23 24  1  0  0  0  0
 24 25  2  0  0  0  0
 21 25  1  0  0  0  0
M  END
> <COMPOUND_ID>
MMV688942

$$$$

  Mrv0541 04191616472D          

 27 30  0  0  0  0            999 V2000
    5.1562   -3.9768    0.0000 C   0  0  0  0  0  0  0  0  0  0  0  0
    4.6713   -3.3093    0.0000 C   0  0  0  0  0  0  0  0  0  0  0  0
    3.8463   -3.3093    0.0000 C   0  0  0  0  0  0  0  0  0  0  0  0
    3.5914   -2.5247    0.0000 O   0  0  0  0  0  0  0  0  0  0  0  0
    4.2588   -2.0398    0.0000 C   0  0  0  0  0  0  0  0  0  0  0  0
    3.7068   -1.4267    0.0000 C   0  0  0  0  0  0  0  0  0  0  0  0
    2.8998   -1.5982    0.0000 N   0  0  0  0  0  0  0  0  0  0  0  0
    2.5642   -2.3519    0.0000 C   0  0  0  0  0  0  0  0  0  0  0  0
    1.7438   -2.2657    0.0000 N   0  0  0  0  0  0  0  0  0  0  0  0
    1.5722   -1.4587    0.0000 C   0  0  0  0  0  0  0  0  0  0  0  0
    2.2867   -1.0462    0.0000 N   0  0  0  0  0  0  0  0  0  0  0  0
    4.9262   -2.5247    0.0000 O   0  0  0  0  0  0  0  0  0  0  0  0
    4.8108   -1.4267    0.0000 C   0  0  0  0  0  0  0  0  0  0  0  0
    4.5559   -0.6421    0.0000 C   0  0  0  0  0  0  0  0  0  0  0  0
    5.1079   -0.0290    0.0000 C   0  0  0  0  0  0  0  0  0  0  0  0
    5.9149   -0.2005    0.0000 C   0  0  0  0  0  0  0  0  0  0  0  0
    6.4669    0.4126    0.0000 O   0  0  0  0  0  0  0  0  0  0  0  0
    7.2739    0.2410    0.0000 C   0  0  0  0  0  0  0  0  0  0  0  0
    7.8259    0.8541    0.0000 C   0  0  0  0  0  0  0  0  0  0  0  0
    8.6329    0.6826    0.0000 C   0  0  0  0  0  0  0  0  0  0  0  0
    8.8879   -0.1020    0.0000 C   0  0  0  0  0  0  0  0  0  0  0  0
    9.6948   -0.2735    0.0000 Cl  0  0  0  0  0  0  0  0  0  0  0  0
    8.3358   -0.7151    0.0000 C   0  0  0  0  0  0  0  0  0  0  0  0
    7.5288   -0.5436    0.0000 C   0  0  0  0  0  0  0  0  0  0  0  0
    6.1698   -0.9851    0.0000 C   0  0  0  0  0  0  0  0  0  0  0  0
    5.6178   -1.5982    0.0000 C   0  0  0  0  0  0  0  0  0  0  0  0
    5.8727   -2.3829    0.0000 Cl  0  0  0  0  0  0  0  0  0  0  0  0
  1  2  1  0  0  0  0
  2  3  1  0  0  0  0
  3  4  1  0  0  0  0
  4  5  1  0  0  0  0
  5  6  1  0  0  0  0
  6  7  1  0  0  0  0
  7  8  1  0  0  0  0
  8  9  2  0  0  0  0
  9 10  1  0  0  0  0
 10 11  2  0  0  0  0
  7 11  1  0  0  0  0
  5 12  1  0  0  0  0
  2 12  1  0  0  0  0
  5 13  1  0  0  0  0
 13 14  2  0  0  0  0
 14 15  1  0  0  0  0
 15 16  2  0  0  0  0
 16 17  1  0  0  0  0
 17 18  1  0  0  0  0
 18 19  2  0  0  0  0
 19 20  1  0  0  0  0
 20 21  2  0  0  0  0
 21 22  1  0  0  0  0
 21 23  1  0  0  0  0
 23 24  2  0  0  0  0
 18 24  1  0  0  0  0
 16 25  1  0  0  0  0
 25 26  2  0  0  0  0
 13 26  1  0  0  0  0
 26 27  1  0  0  0  0
M  END
> <COMPOUND_ID>
MMV688943

$$$$

  Mrv0541 04191616472D          

 22 24  0  0  0  0            999 V2000
    0.7145   -2.8875    0.0000 O   0  0  0  0  0  0  0  0  0  0  0  0
    0.7145   -2.0625    0.0000 C   0  0  0  0  0  0  0  0  0  0  0  0
    1.4289   -1.6500    0.0000 N   0  0  0  0  0  0  0  0  0  0  0  0
    2.1434   -2.0625    0.0000 C   0  0  0  0  0  0  0  0  0  0  0  0
    2.8579   -1.6500    0.0000 C   0  0  0  0  0  0  0  0  0  0  0  0
    3.5724   -2.0625    0.0000 C   0  0  0  0  0  0  0  0  0  0  0  0
    4.3260   -1.7269    0.0000 C   0  0  0  0  0  0  0  0  0  0  0  0
    4.8781   -2.3400    0.0000 S   0  0  0  0  0  0  0  0  0  0  0  0
    4.4656   -3.0545    0.0000 C   0  0  0  0  0  0  0  0  0  0  0  0
    3.6586   -2.8830    0.0000 N   0  0  0  0  0  0  0  0  0  0  0  0
    4.8011   -3.8082    0.0000 C   0  0  0  0  0  0  0  0  0  0  0  0
    5.6216   -3.8944    0.0000 C   0  0  0  0  0  0  0  0  0  0  0  0
    5.9572   -4.6481    0.0000 C   0  0  0  0  0  0  0  0  0  0  0  0
    5.4722   -5.3155    0.0000 C   0  0  0  0  0  0  0  0  0  0  0  0
    4.6518   -5.2293    0.0000 C   0  0  0  0  0  0  0  0  0  0  0  0
    4.3162   -4.4756    0.0000 C   0  0  0  0  0  0  0  0  0  0  0  0
    0.0000   -1.6500    0.0000 C   0  0  0  0  0  0  0  0  0  0  0  0
   -0.7145   -2.0625    0.0000 C   0  0  0  0  0  0  0  0  0  0  0  0
   -1.4289   -1.6500    0.0000 C   0  0  0  0  0  0  0  0  0  0  0  0
   -1.4289   -0.8250    0.0000 C   0  0  0  0  0  0  0  0  0  0  0  0
   -0.7145   -0.4125    0.0000 C   0  0  0  0  0  0  0  0  0  0  0  0
    0.0000   -0.8250    0.0000 C   0  0  0  0  0  0  0  0  0  0  0  0
  1  2  2  0  0  0  0
  2  3  1  0  0  0  0
  3  4  1  0  0  0  0
  4  5  1  0  0  0  0
  5  6  1  0  0  0  0
  6  7  2  0  0  0  0
  7  8  1  0  0  0  0
  8  9  1  0  0  0  0
  9 10  2  0  0  0  0
  6 10  1  0  0  0  0
  9 11  1  0  0  0  0
 11 12  2  0  0  0  0
 12 13  1  0  0  0  0
 13 14  2  0  0  0  0
 14 15  1  0  0  0  0
 15 16  2  0  0  0  0
 11 16  1  0  0  0  0
  2 17  1  0  0  0  0
 17 18  2  0  0  0  0
 18 19  1  0  0  0  0
 19 20  2  0  0  0  0
 20 21  1  0  0  0  0
 21 22  2  0  0  0  0
 17 22  1  0  0  0  0
M  END
> <COMPOUND_ID>
MMV688958

$$$$

  Mrv0541 04191616472D          

 31 33  0  0  0  0            999 V2000
   -2.8579   -2.4750    0.0000 F   0  0  0  0  0  0  0  0  0  0  0  0
   -2.1434   -2.8875    0.0000 C   0  0  0  0  0  0  0  0  0  0  0  0
   -1.4289   -2.4750    0.0000 C   0  0  0  0  0  0  0  0  0  0  0  0
   -0.7145   -2.8875    0.0000 C   0  0  0  0  0  0  0  0  0  0  0  0
   -0.7145   -3.7125    0.0000 C   0  0  0  0  0  0  0  0  0  0  0  0
   -1.4289   -4.1250    0.0000 C   0  0  0  0  0  0  0  0  0  0  0  0
   -2.1434   -3.7125    0.0000 C   0  0  0  0  0  0  0  0  0  0  0  0
    0.0000   -4.1250    0.0000 N   0  0  0  0  0  0  0  0  0  0  0  0
    0.7145   -3.7125    0.0000 C   0  0  0  0  0  0  0  0  0  0  0  0
    1.4289   -4.1250    0.0000 C   0  0  0  0  0  0  0  0  0  0  0  0
    1.4289   -4.9500    0.0000 N   0  0  0  0  0  0  0  0  0  0  0  0
    2.1434   -5.3625    0.0000 C   0  0  0  0  0  0  0  0  0  0  0  0
    2.8579   -4.9500    0.0000 C   0  0  0  0  0  0  0  0  0  0  0  0
    3.5724   -5.3625    0.0000 C   0  0  0  0  0  0  0  0  0  0  0  0
    4.2868   -4.9500    0.0000 C   0  0  0  0  0  0  0  0  0  0  0  0
    5.0013   -5.3625    0.0000 N   0  0  0  0  0  0  0  0  0  0  0  0
    5.0013   -6.1875    0.0000 C   0  0  0  0  0  0  0  0  0  0  0  0
    4.2868   -6.6000    0.0000 C   0  0  0  0  0  0  0  0  0  0  0  0
    3.5724   -7.0125    0.0000 N   0  0  0  0  0  0  0  0  0  0  0  0
    5.7158   -4.9500    0.0000 C   0  0  0  0  0  0  0  0  0  0  0  0
    5.7158   -4.1250    0.0000 O   0  0  0  0  0  0  0  0  0  0  0  0
    6.4302   -5.3625    0.0000 O   0  0  0  0  0  0  0  0  0  0  0  0
    7.1447   -4.9500    0.0000 C   0  0  0  0  0  0  0  0  0  0  0  0
    7.8592   -5.3625    0.0000 C   0  0  0  0  0  0  0  0  0  0  0  0
    8.5737   -4.9500    0.0000 C   0  0  0  0  0  0  0  0  0  0  0  0
    9.2881   -5.3625    0.0000 C   0  0  0  0  0  0  0  0  0  0  0  0
    9.2881   -6.1875    0.0000 C   0  0  0  0  0  0  0  0  0  0  0  0
    8.5737   -6.6000    0.0000 C   0  0  0  0  0  0  0  0  0  0  0  0
    7.8592   -6.1875    0.0000 C   0  0  0  0  0  0  0  0  0  0  0  0
    0.7145   -5.3625    0.0000 C   0  0  0  0  0  0  0  0  0  0  0  0
    0.0000   -4.9500    0.0000 C   0  0  0  0  0  0  0  0  0  0  0  0
  1  2  1  0  0  0  0
  2  3  2  0  0  0  0
  3  4  1  0  0  0  0
  4  5  2  0  0  0  0
  5  6  1  0  0  0  0
  6  7  2  0  0  0  0
  2  7  1  0  0  0  0
  5  8  1  0  0  0  0
  8  9  1  0  0  0  0
  9 10  1  0  0  0  0
 10 11  1  0  0  0  0
 11 12  1  0  0  0  0
 12 13  1  0  0  0  0
 13 14  1  0  0  0  0
 14 15  1  0  0  0  0
 15 16  1  0  0  0  0
 16 17  1  0  0  0  0
 17 18  1  0  0  0  0
 18 19  3  0  0  0  0
 16 20  1  0  0  0  0
 20 21  2  0  0  0  0
 20 22  1  0  0  0  0
 22 23  1  0  0  0  0
 23 24  1  0  0  0  0
 24 25  2  0  0  0  0
 25 26  1  0  0  0  0
 26 27  2  0  0  0  0
 27 28  1  0  0  0  0
 28 29  2  0  0  0  0
 24 29  1  0  0  0  0
 11 30  1  0  0  0  0
 30 31  1  0  0  0  0
  8 31  1  0  0  0  0
M  END
> <COMPOUND_ID>
MMV675997

$$$$

  Mrv0541 04191616472D          

 30 34  0  0  0  0            999 V2000
   -0.1712    0.7310    0.0000 F   0  0  0  0  0  0  0  0  0  0  0  0
   -0.5837    0.0165    0.0000 C   0  0  0  0  0  0  0  0  0  0  0  0
   -0.1712   -0.6979    0.0000 C   0  0  0  0  0  0  0  0  0  0  0  0
   -0.5837   -1.4124    0.0000 C   0  0  0  0  0  0  0  0  0  0  0  0
   -1.4087   -1.4124    0.0000 C   0  0  0  0  0  0  0  0  0  0  0  0
   -1.8212   -2.1269    0.0000 N   0  0  0  0  0  0  0  0  0  0  0  0
   -2.6462   -2.1269    0.0000 C   0  0  0  0  0  0  0  0  0  0  0  0
   -3.0587   -1.4124    0.0000 O   0  0  0  0  0  0  0  0  0  0  0  0
   -3.0587   -2.8414    0.0000 N   0  0  0  0  0  0  0  0  0  0  0  0
   -2.7231   -3.5950    0.0000 C   0  0  0  0  0  0  0  0  0  0  0  0
   -3.3362   -4.1471    0.0000 C   0  0  0  0  0  0  0  0  0  0  0  0
   -4.0507   -3.7346    0.0000 C   0  0  0  0  0  0  0  0  0  0  0  0
   -3.8792   -2.9276    0.0000 C   0  0  0  0  0  0  0  0  0  0  0  0
   -1.8212   -0.6979    0.0000 C   0  0  0  0  0  0  0  0  0  0  0  0
   -1.4087    0.0165    0.0000 C   0  0  0  0  0  0  0  0  0  0  0  0
    0.6538   -0.6979    0.0000 C   0  0  0  0  0  0  0  0  0  0  0  0
    1.1387   -0.0305    0.0000 N   0  0  0  0  0  0  0  0  0  0  0  0
    1.9233   -0.2854    0.0000 C   0  0  0  0  0  0  0  0  0  0  0  0
    2.6378    0.1271    0.0000 C   0  0  0  0  0  0  0  0  0  0  0  0
    3.3523   -0.2854    0.0000 C   0  0  0  0  0  0  0  0  0  0  0  0
    3.3523   -1.1104    0.0000 C   0  0  0  0  0  0  0  0  0  0  0  0
    2.6378   -1.5229    0.0000 N   0  0  0  0  0  0  0  0  0  0  0  0
    1.9233   -1.1104    0.0000 C   0  0  0  0  0  0  0  0  0  0  0  0
    1.1387   -1.3654    0.0000 N   0  0  0  0  0  0  0  0  0  0  0  0
    4.0668    0.1271    0.0000 C   0  0  0  0  0  0  0  0  0  0  0  0
    4.0668    0.9521    0.0000 C   0  0  0  0  0  0  0  0  0  0  0  0
    4.7812    1.3646    0.0000 C   0  0  0  0  0  0  0  0  0  0  0  0
    5.4957    0.9521    0.0000 C   0  0  0  0  0  0  0  0  0  0  0  0
    5.4957    0.1271    0.0000 C   0  0  0  0  0  0  0  0  0  0  0  0
    4.7812   -0.2854    0.0000 C   0  0  0  0  0  0  0  0  0  0  0  0
  1  2  1  0  0  0  0
  2  3  2  0  0  0  0
  3  4  1  0  0  0  0
  4  5  2  0  0  0  0
  5  6  1  0  0  0  0
  6  7  1  0  0  0  0
  7  8  2  0  0  0  0
  7  9  1  0  0  0  0
  9 10  1  0  0  0  0
 10 11  1  0  0  0  0
 11 12  1  0  0  0  0
 12 13  1  0  0  0  0
  9 13  1  0  0  0  0
  5 14  1  0  0  0  0
 14 15  2  0  0  0  0
  2 15  1  0  0  0  0
  3 16  1  0  0  0  0
 16 17  2  0  0  0  0
 17 18  1  0  0  0  0
 18 19  2  0  0  0  0
 19 20  1  0  0  0  0
 20 21  2  0  0  0  0
 21 22  1  0  0  0  0
 22 23  2  0  0  0  0
 18 23  1  0  0  0  0
 23 24  1  0  0  0  0
 16 24  1  0  0  0  0
 20 25  1  0  0  0  0
 25 26  2  0  0  0  0
 26 27  1  0  0  0  0
 27 28  2  0  0  0  0
 28 29  1  0  0  0  0
 29 30  2  0  0  0  0
 25 30  1  0  0  0  0
M  END
> <COMPOUND_ID>
MMV688372

$$$$

  Mrv0541 04191616472D          

 32 34  0  0  0  0            999 V2000
    0.0000    0.0000    0.0000 C   0  0  0  0  0  0  0  0  0  0  0  0
    0.7145   -0.4125    0.0000 C   0  0  0  0  0  0  0  0  0  0  0  0
    1.4289    0.0000    0.0000 C   0  0  0  0  0  0  0  0  0  0  0  0
    1.4289    0.8250    0.0000 C   0  0  0  0  0  0  0  0  0  0  0  0
    2.1434   -0.4125    0.0000 C   0  0  0  0  0  0  0  0  0  0  0  0
    2.1434   -1.2375    0.0000 N   0  0  0  0  0  0  0  0  0  0  0  0
    1.4289   -1.6500    0.0000 C   0  0  0  0  0  0  0  0  0  0  0  0
    1.4289   -2.4750    0.0000 N   0  0  0  0  0  0  0  0  0  0  0  0
    2.0964   -2.9599    0.0000 N   0  0  0  0  0  0  0  0  0  0  0  0
    1.8414   -3.7445    0.0000 C   0  0  0  0  0  0  0  0  0  0  0  0
    2.3264   -4.4120    0.0000 C   0  0  0  0  0  0  0  0  0  0  0  0
    1.0164   -3.7445    0.0000 C   0  0  0  0  0  0  0  0  0  0  0  0
    0.7615   -2.9599    0.0000 C   0  0  0  0  0  0  0  0  0  0  0  0
   -0.0231   -2.7050    0.0000 N   0  0  0  0  0  0  0  0  0  0  0  0
   -0.6362   -3.2570    0.0000 C   0  0  0  0  0  0  0  0  0  0  0  0
   -1.4208   -3.0021    0.0000 C   0  0  0  0  0  0  0  0  0  0  0  0
   -2.0339   -3.5541    0.0000 C   0  0  0  0  0  0  0  0  0  0  0  0
   -2.8186   -3.2992    0.0000 C   0  0  0  0  0  0  0  0  0  0  0  0
   -2.9901   -2.4922    0.0000 C   0  0  0  0  0  0  0  0  0  0  0  0
   -3.7747   -2.2373    0.0000 S   0  0  0  0  0  0  0  0  0  0  0  0
   -3.5198   -1.4526    0.0000 O   0  0  0  0  0  0  0  0  0  0  0  0
   -4.5593   -1.9823    0.0000 N   0  0  0  0  0  0  0  0  0  0  0  0
   -4.7308   -1.1753    0.0000 C   0  0  0  0  0  0  0  0  0  0  0  0
   -5.5155   -0.9204    0.0000 C   0  0  0  0  0  0  0  0  0  0  0  0
   -5.1724   -2.5344    0.0000 C   0  0  0  0  0  0  0  0  0  0  0  0
   -5.9570   -2.2794    0.0000 C   0  0  0  0  0  0  0  0  0  0  0  0
   -4.0296   -3.0219    0.0000 O   0  0  0  0  0  0  0  0  0  0  0  0
   -2.3770   -1.9402    0.0000 C   0  0  0  0  0  0  0  0  0  0  0  0
   -1.5924   -2.1951    0.0000 C   0  0  0  0  0  0  0  0  0  0  0  0
   -0.4647   -4.0640    0.0000 O   0  0  0  0  0  0  0  0  0  0  0  0
    0.7145   -1.2375    0.0000 N   0  0  0  0  0  0  0  0  0  0  0  0
    2.8579   -0.0000    0.0000 O   0  0  0  0  0  0  0  0  0  0  0  0
  1  2  1  0  0  0  0
  2  3  2  0  0  0  0
  3  4  1  0  0  0  0
  3  5  1  0  0  0  0
  5  6  1  0  0  0  0
  6  7  1  0  0  0  0
  7  8  1  0  0  0  0
  8  9  1  0  0  0  0
  9 10  2  0  0  0  0
 10 11  1  0  0  0  0
 10 12  1  0  0  0  0
 12 13  2  0  0  0  0
  8 13  1  0  0  0  0
 13 14  1  0  0  0  0
 14 15  1  0  0  0  0
 15 16  1  0  0  0  0
 16 17  2  0  0  0  0
 17 18  1  0  0  0  0
 18 19  2  0  0  0  0
 19 20  1  0  0  0  0
 20 21  2  0  0  0  0
 20 22  1  0  0  0  0
 22 23  1  0  0  0  0
 23 24  1  0  0  0  0
 22 25  1  0  0  0  0
 25 26  1  0  0  0  0
 20 27  2  0  0  0  0
 19 28  1  0  0  0  0
 28 29  2  0  0  0  0
 16 29  1  0  0  0  0
 15 30  2  0  0  0  0
  7 31  2  0  0  0  0
  2 31  1  0  0  0  0
  5 32  2  0  0  0  0
M  END
> <COMPOUND_ID>
MMV595321

$$$$

  Mrv0541 04191616472D          

 34 37  0  0  0  0            999 V2000
    1.4289    0.0000    0.0000 O   0  0  0  0  0  0  0  0  0  0  0  0
    2.1434   -0.4125    0.0000 C   0  0  0  0  0  0  0  0  0  0  0  0
    2.1434   -1.2375    0.0000 N   0  0  0  0  0  0  0  0  0  0  0  0
    2.8579   -1.6500    0.0000 C   0  0  0  0  0  0  0  0  0  0  0  0
    2.8579   -2.4750    0.0000 C   0  0  0  0  0  0  0  0  0  0  0  0
    2.1434   -2.8875    0.0000 N   0  0  0  0  0  0  0  0  0  0  0  0
    2.1434   -3.7125    0.0000 C   0  0  0  0  0  0  0  0  0  0  0  0
    1.4289   -4.1250    0.0000 C   0  0  0  0  0  0  0  0  0  0  0  0
    1.4289   -4.9500    0.0000 C   0  0  0  0  0  0  0  0  0  0  0  0
    0.7145   -5.3625    0.0000 C   0  0  0  0  0  0  0  0  0  0  0  0
   -0.0000   -4.9500    0.0000 C   0  0  0  0  0  0  0  0  0  0  0  0
   -0.7145   -5.3625    0.0000 N   0  0  0  0  0  0  0  0  0  0  0  0
   -1.4289   -4.9500    0.0000 S   0  0  0  0  0  0  0  0  0  0  0  0
   -1.0164   -4.2355    0.0000 O   0  0  0  0  0  0  0  0  0  0  0  0
   -2.1434   -4.5375    0.0000 C   0  0  0  0  0  0  0  0  0  0  0  0
   -2.8579   -4.9500    0.0000 C   0  0  0  0  0  0  0  0  0  0  0  0
   -3.5724   -4.5375    0.0000 C   0  0  0  0  0  0  0  0  0  0  0  0
   -3.5724   -3.7125    0.0000 C   0  0  0  0  0  0  0  0  0  0  0  0
   -4.2868   -3.3000    0.0000 C   0  0  0  0  0  0  0  0  0  0  0  0
   -2.8579   -3.3000    0.0000 C   0  0  0  0  0  0  0  0  0  0  0  0
   -2.1434   -3.7125    0.0000 C   0  0  0  0  0  0  0  0  0  0  0  0
   -1.8414   -5.6645    0.0000 O   0  0  0  0  0  0  0  0  0  0  0  0
   -0.0000   -4.1250    0.0000 C   0  0  0  0  0  0  0  0  0  0  0  0
    0.7145   -3.7125    0.0000 C   0  0  0  0  0  0  0  0  0  0  0  0
    1.4289   -2.4750    0.0000 C   0  0  0  0  0  0  0  0  0  0  0  0
    1.4289   -1.6500    0.0000 C   0  0  0  0  0  0  0  0  0  0  0  0
    2.8579    0.0000    0.0000 C   0  0  0  0  0  0  0  0  0  0  0  0
    2.8579    0.8250    0.0000 C   0  0  0  0  0  0  0  0  0  0  0  0
    3.5724    1.2375    0.0000 C   0  0  0  0  0  0  0  0  0  0  0  0
    3.5724    2.0625    0.0000 C   0  0  0  0  0  0  0  0  0  0  0  0
    3.5724    2.8875    0.0000 N   0  0  0  0  0  0  0  0  0  0  0  0
    4.2868    0.8250    0.0000 C   0  0  0  0  0  0  0  0  0  0  0  0
    4.2868    0.0000    0.0000 C   0  0  0  0  0  0  0  0  0  0  0  0
    3.5724   -0.4125    0.0000 C   0  0  0  0  0  0  0  0  0  0  0  0
  1  2  2  0  0  0  0
  2  3  1  0  0  0  0
  3  4  1  0  0  0  0
  4  5  1  0  0  0  0
  5  6  1  0  0  0  0
  6  7  1  0  0  0  0
  7  8  1  0  0  0  0
  8  9  2  0  0  0  0
  9 10  1  0  0  0  0
 10 11  2  0  0  0  0
 11 12  1  0  0  0  0
 12 13  1  0  0  0  0
 13 14  2  0  0  0  0
 13 15  1  0  0  0  0
 15 16  2  0  0  0  0
 16 17  1  0  0  0  0
 17 18  2  0  0  0  0
 18 19  1  0  0  0  0
 18 20  1  0  0  0  0
 20 21  2  0  0  0  0
 15 21  1  0  0  0  0
 13 22  2  0  0  0  0
 11 23  1  0  0  0  0
 23 24  2  0  0  0  0
  8 24  1  0  0  0  0
  6 25  1  0  0  0  0
 25 26  1  0  0  0  0
  3 26  1  0  0  0  0
  2 27  1  0  0  0  0
 27 28  2  0  0  0  0
 28 29  1  0  0  0  0
 29 30  1  0  0  0  0
 30 31  3  0  0  0  0
 29 32  2  0  0  0  0
 32 33  1  0  0  0  0
 33 34  2  0  0  0  0
 27 34  1  0  0  0  0
M  END
> <COMPOUND_ID>
MMV689028

$$$$

  Mrv0541 04191616472D          

 35 38  0  0  0  0            999 V2000
    1.4289    0.0000    0.0000 O   0  0  0  0  0  0  0  0  0  0  0  0
    2.1434   -0.4125    0.0000 C   0  0  0  0  0  0  0  0  0  0  0  0
    2.1434   -1.2375    0.0000 N   0  0  0  0  0  0  0  0  0  0  0  0
    2.8579   -1.6500    0.0000 C   0  0  0  0  0  0  0  0  0  0  0  0
    2.8579   -2.4750    0.0000 C   0  0  0  0  0  0  0  0  0  0  0  0
    2.1434   -2.8875    0.0000 N   0  0  0  0  0  0  0  0  0  0  0  0
    2.1434   -3.7125    0.0000 C   0  0  0  0  0  0  0  0  0  0  0  0
    1.4289   -4.1250    0.0000 C   0  0  0  0  0  0  0  0  0  0  0  0
    1.4289   -4.9500    0.0000 C   0  0  0  0  0  0  0  0  0  0  0  0
    0.7145   -5.3625    0.0000 C   0  0  0  0  0  0  0  0  0  0  0  0
   -0.0000   -4.9500    0.0000 C   0  0  0  0  0  0  0  0  0  0  0  0
   -0.7145   -5.3625    0.0000 N   0  0  0  0  0  0  0  0  0  0  0  0
   -1.4289   -4.9500    0.0000 S   0  0  0  0  0  0  0  0  0  0  0  0
   -1.0164   -4.2355    0.0000 O   0  0  0  0  0  0  0  0  0  0  0  0
   -2.1434   -4.5375    0.0000 C   0  0  0  0  0  0  0  0  0  0  0  0
   -2.8579   -4.9500    0.0000 C   0  0  0  0  0  0  0  0  0  0  0  0
   -3.5724   -4.5375    0.0000 C   0  0  0  0  0  0  0  0  0  0  0  0
   -3.5724   -3.7125    0.0000 C   0  0  0  0  0  0  0  0  0  0  0  0
   -4.2868   -3.3000    0.0000 O   0  0  0  0  0  0  0  0  0  0  0  0
   -4.2868   -2.4750    0.0000 C   0  0  0  0  0  0  0  0  0  0  0  0
   -2.8579   -3.3000    0.0000 C   0  0  0  0  0  0  0  0  0  0  0  0
   -2.1434   -3.7125    0.0000 C   0  0  0  0  0  0  0  0  0  0  0  0
   -1.8414   -5.6645    0.0000 O   0  0  0  0  0  0  0  0  0  0  0  0
   -0.0000   -4.1250    0.0000 C   0  0  0  0  0  0  0  0  0  0  0  0
    0.7145   -3.7125    0.0000 C   0  0  0  0  0  0  0  0  0  0  0  0
    1.4289   -2.4750    0.0000 C   0  0  0  0  0  0  0  0  0  0  0  0
    1.4289   -1.6500    0.0000 C   0  0  0  0  0  0  0  0  0  0  0  0
    2.8579    0.0000    0.0000 C   0  0  0  0  0  0  0  0  0  0  0  0
    2.8579    0.8250    0.0000 C   0  0  0  0  0  0  0  0  0  0  0  0
    3.5724    1.2375    0.0000 C   0  0  0  0  0  0  0  0  0  0  0  0
    3.5724    2.0625    0.0000 C   0  0  0  0  0  0  0  0  0  0  0  0
    3.5724    2.8875    0.0000 N   0  0  0  0  0  0  0  0  0  0  0  0
    4.2868    0.8250    0.0000 C   0  0  0  0  0  0  0  0  0  0  0  0
    4.2868    0.0000    0.0000 C   0  0  0  0  0  0  0  0  0  0  0  0
    3.5724   -0.4125    0.0000 C   0  0  0  0  0  0  0  0  0  0  0  0
  1  2  2  0  0  0  0
  2  3  1  0  0  0  0
  3  4  1  0  0  0  0
  4  5  1  0  0  0  0
  5  6  1  0  0  0  0
  6  7  1  0  0  0  0
  7  8  1  0  0  0  0
  8  9  2  0  0  0  0
  9 10  1  0  0  0  0
 10 11  2  0  0  0  0
 11 12  1  0  0  0  0
 12 13  1  0  0  0  0
 13 14  2  0  0  0  0
 13 15  1  0  0  0  0
 15 16  2  0  0  0  0
 16 17  1  0  0  0  0
 17 18  2  0  0  0  0
 18 19  1  0  0  0  0
 19 20  1  0  0  0  0
 18 21  1  0  0  0  0
 21 22  2  0  0  0  0
 15 22  1  0  0  0  0
 13 23  2  0  0  0  0
 11 24  1  0  0  0  0
 24 25  2  0  0  0  0
  8 25  1  0  0  0  0
  6 26  1  0  0  0  0
 26 27  1  0  0  0  0
  3 27  1  0  0  0  0
  2 28  1  0  0  0  0
 28 29  2  0  0  0  0
 29 30  1  0  0  0  0
 30 31  1  0  0  0  0
 31 32  3  0  0  0  0
 30 33  2  0  0  0  0
 33 34  1  0  0  0  0
 34 35  2  0  0  0  0
 28 35  1  0  0  0  0
M  END
> <COMPOUND_ID>
MMV689029

$$$$

  Mrv0541 04191616472D          

 31 34  0  0  0  0            999 V2000
   -3.5724   -1.2375    0.0000 C   0  0  0  0  0  0  0  0  0  0  0  0
   -3.5724   -0.4125    0.0000 C   0  0  0  0  0  0  0  0  0  0  0  0
   -4.2868    0.0000    0.0000 C   0  0  0  0  0  0  0  0  0  0  0  0
   -5.0013   -0.4125    0.0000 F   0  0  0  0  0  0  0  0  0  0  0  0
   -4.2868    0.8250    0.0000 C   0  0  0  0  0  0  0  0  0  0  0  0
   -3.5724    1.2375    0.0000 C   0  0  0  0  0  0  0  0  0  0  0  0
   -2.8579    0.8250    0.0000 C   0  0  0  0  0  0  0  0  0  0  0  0
   -2.8579    0.0000    0.0000 C   0  0  0  0  0  0  0  0  0  0  0  0
   -2.1434   -0.4125    0.0000 C   0  0  0  0  0  0  0  0  0  0  0  0
   -1.4289   -0.0000    0.0000 N   0  0  0  0  0  0  0  0  0  0  0  0
   -1.4289    0.8250    0.0000 C   0  0  0  0  0  0  0  0  0  0  0  0
   -0.7145    1.2375    0.0000 C   0  0  0  0  0  0  0  0  0  0  0  0
    0.0000    0.8250    0.0000 C   0  0  0  0  0  0  0  0  0  0  0  0
    0.0000   -0.0000    0.0000 C   0  0  0  0  0  0  0  0  0  0  0  0
    0.7145   -0.4125    0.0000 C   0  0  0  0  0  0  0  0  0  0  0  0
    0.7145   -1.2375    0.0000 C   0  0  0  0  0  0  0  0  0  0  0  0
    1.3819   -1.7224    0.0000 N   0  0  0  0  0  0  0  0  0  0  0  0
    1.1270   -2.5070    0.0000 C   0  0  0  0  0  0  0  0  0  0  0  0
    1.6119   -3.1745    0.0000 C   0  0  0  0  0  0  0  0  0  0  0  0
    2.4324   -3.0882    0.0000 C   0  0  0  0  0  0  0  0  0  0  0  0
    2.9173   -3.7557    0.0000 C   0  0  0  0  0  0  0  0  0  0  0  0
    2.5817   -4.5094    0.0000 C   0  0  0  0  0  0  0  0  0  0  0  0
    3.0667   -5.1768    0.0000 N   0  0  0  0  0  0  0  0  0  0  0  0
    2.7311   -5.9305    0.0000 C   0  0  0  0  0  0  0  0  0  0  0  0
    3.2160   -6.5979    0.0000 C   0  0  0  0  0  0  0  0  0  0  0  0
    1.9106   -6.0167    0.0000 O   0  0  0  0  0  0  0  0  0  0  0  0
    1.7613   -4.5956    0.0000 C   0  0  0  0  0  0  0  0  0  0  0  0
    1.2763   -3.9282    0.0000 C   0  0  0  0  0  0  0  0  0  0  0  0
    0.3020   -2.5070    0.0000 N   0  0  0  0  0  0  0  0  0  0  0  0
    0.0470   -1.7224    0.0000 O   0  0  0  0  0  0  0  0  0  0  0  0
   -0.7145   -0.4125    0.0000 C   0  0  0  0  0  0  0  0  0  0  0  0
  1  2  1  0  0  0  0
  2  3  2  0  0  0  0
  3  4  1  0  0  0  0
  3  5  1  0  0  0  0
  5  6  2  0  0  0  0
  6  7  1  0  0  0  0
  7  8  2  0  0  0  0
  2  8  1  0  0  0  0
  8  9  1  0  0  0  0
  9 10  1  0  0  0  0
 10 11  1  0  0  0  0
 11 12  1  0  0  0  0
 12 13  1  0  0  0  0
 13 14  1  0  0  0  0
 14 15  1  0  0  0  0
 15 16  1  0  0  0  0
 16 17  2  0  0  0  0
 17 18  1  0  0  0  0
 18 19  1  0  0  0  0
 19 20  2  0  0  0  0
 20 21  1  0  0  0  0
 21 22  2  0  0  0  0
 22 23  1  0  0  0  0
 23 24  1  0  0  0  0
 24 25  1  0  0  0  0
 24 26  2  0  0  0  0
 22 27  1  0  0  0  0
 27 28  2  0  0  0  0
 19 28  1  0  0  0  0
 18 29  2  0  0  0  0
 29 30  1  0  0  0  0
 16 30  1  0  0  0  0
 14 31  1  0  0  0  0
 10 31  1  0  0  0  0
M  END
> <COMPOUND_ID>
MMV689061

$$$$

  Mrv0541 04191616472D          

 26 29  0  0  0  0            999 V2000
    0.1536    1.3672    0.0000 O   0  0  0  0  0  0  0  0  0  0  0  0
   -0.3984    0.7541    0.0000 C   0  0  0  0  0  0  0  0  0  0  0  0
   -1.2054    0.9256    0.0000 N   0  0  0  0  0  0  0  0  0  0  0  0
   -1.7575    0.3126    0.0000 C   0  0  0  0  0  0  0  0  0  0  0  0
   -2.5644    0.4841    0.0000 C   0  0  0  0  0  0  0  0  0  0  0  0
   -3.1165   -0.1290    0.0000 C   0  0  0  0  0  0  0  0  0  0  0  0
   -2.8615   -0.9136    0.0000 C   0  0  0  0  0  0  0  0  0  0  0  0
   -3.4135   -1.5267    0.0000 C   0  0  0  0  0  0  0  0  0  0  0  0
   -3.1586   -2.3114    0.0000 N   0  0  0  0  0  0  0  0  0  0  0  0
   -3.7106   -2.9244    0.0000 C   0  0  0  0  0  0  0  0  0  0  0  0
   -4.2205   -1.3552    0.0000 C   0  0  0  0  0  0  0  0  0  0  0  0
   -4.4755   -0.5706    0.0000 C   0  0  0  0  0  0  0  0  0  0  0  0
   -5.2824   -0.3991    0.0000 C   0  0  0  0  0  0  0  0  0  0  0  0
   -3.9234    0.0425    0.0000 N   0  0  0  0  0  0  0  0  0  0  0  0
   -2.8194    1.2687    0.0000 O   0  0  0  0  0  0  0  0  0  0  0  0
   -2.2673    1.8818    0.0000 C   0  0  0  0  0  0  0  0  0  0  0  0
   -1.4604    1.7103    0.0000 C   0  0  0  0  0  0  0  0  0  0  0  0
   -0.1435   -0.0305    0.0000 C   0  0  0  0  0  0  0  0  0  0  0  0
   -0.6284   -0.6979    0.0000 N   0  0  0  0  0  0  0  0  0  0  0  0
   -0.1435   -1.3654    0.0000 N   0  0  0  0  0  0  0  0  0  0  0  0
    0.6411   -1.1104    0.0000 C   0  0  0  0  0  0  0  0  0  0  0  0
    0.6411   -0.2854    0.0000 C   0  0  0  0  0  0  0  0  0  0  0  0
    1.3556    0.1271    0.0000 C   0  0  0  0  0  0  0  0  0  0  0  0
    2.0701   -0.2854    0.0000 C   0  0  0  0  0  0  0  0  0  0  0  0
    2.0701   -1.1104    0.0000 C   0  0  0  0  0  0  0  0  0  0  0  0
    1.3556   -1.5229    0.0000 C   0  0  0  0  0  0  0  0  0  0  0  0
  1  2  2  0  0  0  0
  2  3  1  0  0  0  0
  3  4  1  0  0  0  0
  4  5  1  0  0  0  0
  5  6  1  0  0  0  0
  6  7  2  0  0  0  0
  7  8  1  0  0  0  0
  8  9  1  0  0  0  0
  9 10  1  0  0  0  0
  8 11  2  0  0  0  0
 11 12  1  0  0  0  0
 12 13  1  0  0  0  0
 12 14  2  0  0  0  0
  6 14  1  0  0  0  0
  5 15  1  0  0  0  0
 15 16  1  0  0  0  0
 16 17  1  0  0  0  0
  3 17  1  0  0  0  0
  2 18  1  0  0  0  0
 18 19  2  0  0  0  0
 19 20  1  0  0  0  0
 20 21  1  0  0  0  0
 21 22  2  0  0  0  0
 18 22  1  0  0  0  0
 22 23  1  0  0  0  0
 23 24  2  0  0  0  0
 24 25  1  0  0  0  0
 25 26  2  0  0  0  0
 21 26  1  0  0  0  0
M  END
> <COMPOUND_ID>
MMV689709

$$$$

  Mrv0541 04191616472D          

 20 22  0  0  0  0            999 V2000
   -2.1434    8.4161    0.0000 Cl  0  0  0  0  0  0  0  0  0  0  0  0
   -1.4289    8.0036    0.0000 C   0  0  0  0  0  0  0  0  0  0  0  0
   -0.7145    8.4161    0.0000 C   0  0  0  0  0  0  0  0  0  0  0  0
   -0.0000    8.0036    0.0000 C   0  0  0  0  0  0  0  0  0  0  0  0
   -0.0000    7.1786    0.0000 C   0  0  0  0  0  0  0  0  0  0  0  0
    0.7145    6.7661    0.0000 C   0  0  0  0  0  0  0  0  0  0  0  0
    0.7145    5.9411    0.0000 N   0  0  0  0  0  0  0  0  0  0  0  0
    1.4289    5.5286    0.0000 C   0  0  0  0  0  0  0  0  0  0  0  0
    1.4289    4.7036    0.0000 C   0  0  0  0  0  0  0  0  0  0  0  0
    0.7145    4.2911    0.0000 N   0  0  0  0  0  0  0  0  0  0  0  0
    0.0000    4.7036    0.0000 C   0  0  0  0  0  0  0  0  0  0  0  0
   -0.0000    5.5286    0.0000 C   0  0  0  0  0  0  0  0  0  0  0  0
    0.7145    3.4661    0.0000 C   0  0  0  0  0  0  0  0  0  0  0  0
    1.3819    2.9812    0.0000 N   0  0  0  0  0  0  0  0  0  0  0  0
    1.1270    2.1965    0.0000 C   0  0  0  0  0  0  0  0  0  0  0  0
    0.3020    2.1965    0.0000 C   0  0  0  0  0  0  0  0  0  0  0  0
    0.0470    2.9812    0.0000 N   0  0  0  0  0  0  0  0  0  0  0  0
   -0.7145    6.7661    0.0000 C   0  0  0  0  0  0  0  0  0  0  0  0
   -1.4289    7.1786    0.0000 C   0  0  0  0  0  0  0  0  0  0  0  0
   -2.1434    6.7661    0.0000 Cl  0  0  0  0  0  0  0  0  0  0  0  0
  1  2  1  0  0  0  0
  2  3  2  0  0  0  0
  3  4  1  0  0  0  0
  4  5  2  0  0  0  0
  5  6  1  0  0  0  0
  6  7  1  0  0  0  0
  7  8  1  0  0  0  0
  8  9  1  0  0  0  0
  9 10  1  0  0  0  0
 10 11  1  0  0  0  0
 11 12  1  0  0  0  0
  7 12  1  0  0  0  0
 10 13  1  0  0  0  0
 13 14  2  0  0  0  0
 14 15  1  0  0  0  0
 15 16  1  0  0  0  0
 16 17  1  0  0  0  0
 13 17  1  0  0  0  0
  5 18  1  0  0  0  0
 18 19  2  0  0  0  0
  2 19  1  0  0  0  0
 19 20  1  0  0  0  0
M  END
> <COMPOUND_ID>
MMV689060

$$$$

  Mrv0541 04191616472D          

 24 26  0  0  0  0            999 V2000
    0.7145   -2.8875    0.0000 C   0  0  0  0  0  0  0  0  0  0  0  0
    0.0000   -2.4750    0.0000 C   0  0  0  0  0  0  0  0  0  0  0  0
    0.0000   -1.6500    0.0000 N   0  0  0  0  0  0  0  0  0  0  0  0
   -0.7145   -1.2375    0.0000 C   0  0  0  0  0  0  0  0  0  0  0  0
    0.7145   -1.2375    0.0000 C   0  0  0  0  0  0  0  0  0  0  0  0
    0.7145   -0.4125    0.0000 N   0  0  0  0  0  0  0  0  0  0  0  0
    1.4289    0.0000    0.0000 C   0  0  0  0  0  0  0  0  0  0  0  0
    2.1434   -0.4125    0.0000 C   0  0  0  0  0  0  0  0  0  0  0  0
    2.8579    0.0000    0.0000 C   0  0  0  0  0  0  0  0  0  0  0  0
    2.8579    0.8250    0.0000 N   0  0  0  0  0  0  0  0  0  0  0  0
    3.5724   -0.4125    0.0000 N   0  0  0  0  0  0  0  0  0  0  0  0
    3.5724   -1.2375    0.0000 C   0  0  0  0  0  0  0  0  0  0  0  0
    4.2868   -1.6500    0.0000 N   0  0  0  0  0  0  0  0  0  0  0  0
    2.8579   -1.6500    0.0000 N   0  0  0  0  0  0  0  0  0  0  0  0
    2.1434   -1.2375    0.0000 C   0  0  0  0  0  0  0  0  0  0  0  0
    1.4289   -1.6500    0.0000 N   0  0  0  0  0  0  0  0  0  0  0  0
   -0.7145   -2.8875    0.0000 C   0  0  0  0  0  0  0  0  0  0  0  0
   -0.7145   -3.7125    0.0000 C   0  0  0  0  0  0  0  0  0  0  0  0
   -1.4289   -4.1250    0.0000 C   0  0  0  0  0  0  0  0  0  0  0  0
   -1.4289   -4.9500    0.0000 Cl  0  0  0  0  0  0  0  0  0  0  0  0
   -2.1434   -3.7125    0.0000 C   0  0  0  0  0  0  0  0  0  0  0  0
   -2.1434   -2.8875    0.0000 C   0  0  0  0  0  0  0  0  0  0  0  0
   -2.8579   -2.4750    0.0000 Cl  0  0  0  0  0  0  0  0  0  0  0  0
   -1.4289   -2.4750    0.0000 C   0  0  0  0  0  0  0  0  0  0  0  0
  1  2  1  0  0  0  0
  2  3  1  0  0  0  0
  3  4  1  0  0  0  0
  3  5  1  0  0  0  0
  5  6  2  0  0  0  0
  6  7  1  0  0  0  0
  7  8  2  0  0  0  0
  8  9  1  0  0  0  0
  9 10  1  0  0  0  0
  9 11  2  0  0  0  0
 11 12  1  0  0  0  0
 12 13  1  0  0  0  0
 12 14  2  0  0  0  0
 14 15  1  0  0  0  0
  8 15  1  0  0  0  0
 15 16  2  0  0  0  0
  5 16  1  0  0  0  0
  2 17  1  0  0  0  0
 17 18  2  0  0  0  0
 18 19  1  0  0  0  0
 19 20  1  0  0  0  0
 19 21  2  0  0  0  0
 21 22  1  0  0  0  0
 22 23  1  0  0  0  0
 22 24  2  0  0  0  0
 17 24  1  0  0  0  0
M  END
> <COMPOUND_ID>
MMV689437

$$$$

  Mrv0541 04191616472D          

 33 36  0  0  0  0            999 V2000
   -0.7145    0.4125    0.0000 F   0  0  0  0  0  0  0  0  0  0  0  0
   -0.7145   -0.4125    0.0000 C   0  0  0  0  0  0  0  0  0  0  0  0
   -1.5395   -0.4125    0.0000 F   0  0  0  0  0  0  0  0  0  0  0  0
    0.1105   -0.4125    0.0000 F   0  0  0  0  0  0  0  0  0  0  0  0
   -0.7145   -1.2375    0.0000 C   0  0  0  0  0  0  0  0  0  0  0  0
    0.0000   -1.6500    0.0000 C   0  0  0  0  0  0  0  0  0  0  0  0
    0.0000   -2.4750    0.0000 C   0  0  0  0  0  0  0  0  0  0  0  0
   -0.7145   -2.8875    0.0000 C   0  0  0  0  0  0  0  0  0  0  0  0
   -1.4289   -2.4750    0.0000 C   0  0  0  0  0  0  0  0  0  0  0  0
   -1.4289   -1.6500    0.0000 C   0  0  0  0  0  0  0  0  0  0  0  0
   -0.7145   -3.7125    0.0000 N   0  0  0  0  0  0  0  0  0  0  0  0
   -1.4289   -4.1250    0.0000 C   0  0  0  0  0  0  0  0  0  0  0  0
   -1.4289   -4.9500    0.0000 C   0  0  0  0  0  0  0  0  0  0  0  0
   -2.1434   -5.3625    0.0000 C   0  0  0  0  0  0  0  0  0  0  0  0
   -2.8579   -4.9500    0.0000 N   0  0  0  0  0  0  0  0  0  0  0  0
   -2.8579   -4.1250    0.0000 C   0  0  0  0  0  0  0  0  0  0  0  0
   -2.1434   -3.7125    0.0000 C   0  0  0  0  0  0  0  0  0  0  0  0
   -3.5724   -5.3625    0.0000 C   0  0  0  0  0  0  0  0  0  0  0  0
   -3.5724   -6.1875    0.0000 C   0  0  0  0  0  0  0  0  0  0  0  0
   -4.2868   -6.6000    0.0000 C   0  0  0  0  0  0  0  0  0  0  0  0
   -5.0013   -6.1875    0.0000 C   0  0  0  0  0  0  0  0  0  0  0  0
   -5.0013   -5.3625    0.0000 C   0  0  0  0  0  0  0  0  0  0  0  0
   -4.2868   -4.9500    0.0000 N   0  0  0  0  0  0  0  0  0  0  0  0
   -5.7158   -6.6000    0.0000 C   0  0  0  0  0  0  0  0  0  0  0  0
   -6.4302   -7.0125    0.0000 F   0  0  0  0  0  0  0  0  0  0  0  0
   -6.1283   -5.8855    0.0000 F   0  0  0  0  0  0  0  0  0  0  0  0
   -5.3033   -7.3145    0.0000 F   0  0  0  0  0  0  0  0  0  0  0  0
   -0.0000   -4.1250    0.0000 C   0  0  0  0  0  0  0  0  0  0  0  0
    0.7145   -3.7125    0.0000 C   0  0  0  0  0  0  0  0  0  0  0  0
    1.4289   -4.1250    0.0000 C   0  0  0  0  0  0  0  0  0  0  0  0
    1.4289   -4.9500    0.0000 C   0  0  0  0  0  0  0  0  0  0  0  0
    0.7145   -5.3625    0.0000 N   0  0  0  0  0  0  0  0  0  0  0  0
   -0.0000   -4.9500    0.0000 C   0  0  0  0  0  0  0  0  0  0  0  0
  1  2  1  0  0  0  0
  2  3  1  0  0  0  0
  2  4  1  0  0  0  0
  2  5  1  0  0  0  0
  5  6  2  0  0  0  0
  6  7  1  0  0  0  0
  7  8  2  0  0  0  0
  8  9  1  0  0  0  0
  9 10  2  0  0  0  0
  5 10  1  0  0  0  0
  8 11  1  0  0  0  0
 11 12  1  0  0  0  0
 12 13  1  0  0  0  0
 13 14  1  0  0  0  0
 14 15  1  0  0  0  0
 15 16  1  0  0  0  0
 16 17  1  0  0  0  0
 12 17  1  0  0  0  0
 15 18  1  0  0  0  0
 18 19  2  0  0  0  0
 19 20  1  0  0  0  0
 20 21  2  0  0  0  0
 21 22  1  0  0  0  0
 22 23  2  0  0  0  0
 18 23  1  0  0  0  0
 21 24  1  0  0  0  0
 24 25  1  0  0  0  0
 24 26  1  0  0  0  0
 24 27  1  0  0  0  0
 11 28  1  0  0  0  0
 28 29  2  0  0  0  0
 29 30  1  0  0  0  0
 30 31  2  0  0  0  0
 31 32  1  0  0  0  0
 32 33  2  0  0  0  0
 28 33  1  0  0  0  0
M  END
> <COMPOUND_ID>
MMV689243

$$$$

  Mrv0541 04191616472D          

 32 35  0  0  1  0            999 V2000
   -3.5724    2.8875    0.0000 F   0  0  0  0  0  0  0  0  0  0  0  0
   -3.5724    2.0625    0.0000 C   0  0  0  0  0  0  0  0  0  0  0  0
   -4.3974    2.0625    0.0000 F   0  0  0  0  0  0  0  0  0  0  0  0
   -2.7474    2.0625    0.0000 F   0  0  0  0  0  0  0  0  0  0  0  0
   -3.5724    1.2375    0.0000 C   0  0  0  0  0  0  0  0  0  0  0  0
   -2.8579    0.8250    0.0000 C   0  0  0  0  0  0  0  0  0  0  0  0
   -2.8579   -0.0000    0.0000 C   0  0  0  0  0  0  0  0  0  0  0  0
   -3.5724   -0.4125    0.0000 C   0  0  0  0  0  0  0  0  0  0  0  0
   -4.2868   -0.0000    0.0000 C   0  0  0  0  0  0  0  0  0  0  0  0
   -4.2868    0.8250    0.0000 C   0  0  0  0  0  0  0  0  0  0  0  0
   -3.5724   -1.2375    0.0000 N   0  0  0  0  0  0  0  0  0  0  0  0
   -2.8579   -1.6500    0.0000 C   0  0  0  0  0  0  0  0  0  0  0  0
   -2.8579   -2.4750    0.0000 C   0  0  0  0  0  0  0  0  0  0  0  0
   -3.5724   -2.8875    0.0000 N   0  0  0  0  0  0  0  0  0  0  0  0
   -4.2868   -2.4750    0.0000 C   0  0  0  0  0  0  0  0  0  0  0  0
   -4.2868   -1.6500    0.0000 C   0  0  0  0  0  0  0  0  0  0  0  0
   -3.5724   -3.7125    0.0000 C   0  0  0  0  0  0  0  0  0  0  0  0
   -4.2868   -4.1250    0.0000 O   0  0  0  0  0  0  0  0  0  0  0  0
   -2.8579   -4.1250    0.0000 C   0  0  1  0  0  0  0  0  0  0  0  0
   -2.8579   -4.9500    0.0000 C   0  0  0  0  0  0  0  0  0  0  0  0
   -2.1434   -5.3625    0.0000 C   0  0  0  0  0  0  0  0  0  0  0  0
   -2.1434   -6.1875    0.0000 C   0  0  0  0  0  0  0  0  0  0  0  0
   -2.8579   -6.6000    0.0000 C   0  0  0  0  0  0  0  0  0  0  0  0
   -2.8579   -7.4250    0.0000 Cl  0  0  0  0  0  0  0  0  0  0  0  0
   -3.5724   -6.1875    0.0000 C   0  0  0  0  0  0  0  0  0  0  0  0
   -3.5724   -5.3625    0.0000 C   0  0  0  0  0  0  0  0  0  0  0  0
   -2.1434   -3.7125    0.0000 C   0  0  0  0  0  0  0  0  0  0  0  0
   -2.1434   -2.8875    0.0000 C   0  0  0  0  0  0  0  0  0  0  0  0
   -1.4289   -2.4750    0.0000 C   0  0  0  0  0  0  0  0  0  0  0  0
   -0.7145   -2.8875    0.0000 C   0  0  0  0  0  0  0  0  0  0  0  0
   -0.7145   -3.7125    0.0000 N   0  0  0  0  0  0  0  0  0  0  0  0
   -1.4289   -4.1250    0.0000 C   0  0  0  0  0  0  0  0  0  0  0  0
  1  2  1  0  0  0  0
  2  3  1  0  0  0  0
  2  4  1  0  0  0  0
  2  5  1  0  0  0  0
  5  6  2  0  0  0  0
  6  7  1  0  0  0  0
  7  8  2  0  0  0  0
  8  9  1  0  0  0  0
  9 10  2  0  0  0  0
  5 10  1  0  0  0  0
  8 11  1  0  0  0  0
 11 12  1  0  0  0  0
 12 13  1  0  0  0  0
 13 14  1  0  0  0  0
 14 15  1  0  0  0  0
 15 16  1  0  0  0  0
 11 16  1  0  0  0  0
 14 17  1  0  0  0  0
 17 18  2  0  0  0  0
 17 19  1  0  0  0  0
 19 20  1  0  0  0  0
 20 21  2  0  0  0  0
 21 22  1  0  0  0  0
 22 23  2  0  0  0  0
 23 24  1  0  0  0  0
 23 25  1  0  0  0  0
 25 26  2  0  0  0  0
 20 26  1  0  0  0  0
 19 27  1  6  0  0  0
 27 28  2  0  0  0  0
 28 29  1  0  0  0  0
 29 30  2  0  0  0  0
 30 31  1  0  0  0  0
 31 32  2  0  0  0  0
 27 32  1  0  0  0  0
M  END
> <COMPOUND_ID>
MMV689244

$$$$

  Mrv0541 04191616472D          

 43 48  0  0  1  0            999 V2000
    0.7145   -5.3625    0.0000 C   0  0  0  0  0  0  0  0  0  0  0  0
   -0.0000   -4.9500    0.0000 O   0  0  0  0  0  0  0  0  0  0  0  0
   -0.0000   -4.1250    0.0000 C   0  0  0  0  0  0  0  0  0  0  0  0
   -0.7145   -3.7125    0.0000 C   0  0  0  0  0  0  0  0  0  0  0  0
   -1.4289   -4.1250    0.0000 O   0  0  0  0  0  0  0  0  0  0  0  0
   -1.4289   -4.9500    0.0000 C   0  0  0  0  0  0  0  0  0  0  0  0
   -2.1434   -5.3625    0.0000 C   0  0  0  0  0  0  0  0  0  0  0  0
   -2.1434   -6.1875    0.0000 C   0  0  0  0  0  0  0  0  0  0  0  0
   -2.8579   -6.6000    0.0000 C   0  0  0  0  0  0  0  0  0  0  0  0
   -2.8579   -7.4250    0.0000 O   0  0  0  0  0  0  0  0  0  0  0  0
   -3.5724   -7.8375    0.0000 C   0  0  0  0  0  0  0  0  0  0  0  0
   -3.5724   -8.6625    0.0000 C   0  0  0  0  0  0  0  0  0  0  0  0
   -4.2868   -9.0750    0.0000 C   0  0  0  0  0  0  0  0  0  0  0  0
   -5.0013   -8.6625    0.0000 C   0  0  0  0  0  0  0  0  0  0  0  0
   -5.7158   -9.0750    0.0000 C   0  0  0  0  0  0  0  0  0  0  0  0
   -5.8020   -9.8955    0.0000 N   0  0  0  0  0  0  0  0  0  0  0  0
   -6.6090  -10.0670    0.0000 N   0  0  0  0  0  0  0  0  0  0  0  0
   -7.0215   -9.3525    0.0000 N   0  0  0  0  0  0  0  0  0  0  0  0
   -6.4694   -8.7394    0.0000 N   0  0  0  0  0  0  0  0  0  0  0  0
   -5.0013   -7.8375    0.0000 C   0  0  0  0  0  0  0  0  0  0  0  0
   -4.2868   -7.4250    0.0000 C   0  0  0  0  0  0  0  0  0  0  0  0
   -0.7145   -2.8875    0.0000 C   0  0  0  0  0  0  0  0  0  0  0  0
   -0.0000   -2.4750    0.0000 C   0  0  0  0  0  0  0  0  0  0  0  0
   -0.0000   -1.6500    0.0000 C   0  0  0  0  0  0  0  0  0  0  0  0
    0.7145   -1.2375    0.0000 C   0  0  2  0  0  0  0  0  0  0  0  0
    0.7145   -0.4125    0.0000 C   0  0  1  0  0  0  0  0  0  0  0  0
    1.4289   -0.0000    0.0000 C   0  0  0  0  0  0  0  0  0  0  0  0
    2.1434   -0.4125    0.0000 C   0  0  0  0  0  0  0  0  0  0  0  0
    2.1434   -1.2375    0.0000 C   0  0  0  0  0  0  0  0  0  0  0  0
    1.4289   -1.6500    0.0000 C   0  0  0  0  0  0  0  0  0  0  0  0
   -0.7145   -1.2375    0.0000 N   0  0  0  0  0  0  0  0  0  0  0  0
   -0.7145   -0.4125    0.0000 N   0  0  0  0  0  0  0  0  0  0  0  0
   -1.4289    0.0000    0.0000 C   0  0  0  0  0  0  0  0  0  0  0  0
   -2.1106   -0.4647    0.0000 C   0  0  0  0  0  0  0  0  0  0  0  0
   -2.8989   -0.2216    0.0000 C   0  0  0  0  0  0  0  0  0  0  0  0
   -3.2003    0.5464    0.0000 C   0  0  0  0  0  0  0  0  0  0  0  0
   -2.7878    1.2609    0.0000 C   0  0  0  0  0  0  0  0  0  0  0  0
   -1.9721    1.3838    0.0000 C   0  0  0  0  0  0  0  0  0  0  0  0
   -1.3673    0.8227    0.0000 C   0  0  0  0  0  0  0  0  0  0  0  0
    0.0000   -0.0000    0.0000 C   0  0  0  0  0  0  0  0  0  0  0  0
    0.0000    0.8250    0.0000 O   0  0  0  0  0  0  0  0  0  0  0  0
    0.7145   -2.8875    0.0000 C   0  0  0  0  0  0  0  0  0  0  0  0
    0.7145   -3.7125    0.0000 C   0  0  0  0  0  0  0  0  0  0  0  0
  1  2  1  0  0  0  0
  2  3  1  0  0  0  0
  3  4  2  0  0  0  0
  4  5  1  0  0  0  0
  5  6  1  0  0  0  0
  6  7  1  0  0  0  0
  7  8  1  0  0  0  0
  8  9  1  0  0  0  0
  9 10  1  0  0  0  0
 10 11  1  0  0  0  0
 11 12  2  0  0  0  0
 12 13  1  0  0  0  0
 13 14  2  0  0  0  0
 14 15  1  0  0  0  0
 15 16  2  0  0  0  0
 16 17  1  0  0  0  0
 17 18  1  0  0  0  0
 18 19  2  0  0  0  0
 15 19  1  0  0  0  0
 14 20  1  0  0  0  0
 20 21  2  0  0  0  0
 11 21  1  0  0  0  0
  4 22  1  0  0  0  0
 22 23  2  0  0  0  0
 23 24  1  0  0  0  0
 24 25  1  0  0  0  0
 25 26  1  0  0  0  0
 26 27  1  0  0  0  0
 27 28  1  0  0  0  0
 28 29  2  0  0  0  0
 29 30  1  0  0  0  0
 25 30  1  6  0  0  0
 24 31  2  0  0  0  0
 31 32  1  0  0  0  0
 32 33  1  0  0  0  0
 33 34  1  0  0  0  0
 34 35  1  0  0  0  0
 35 36  1  0  0  0  0
 36 37  1  0  0  0  0
 37 38  1  0  0  0  0
 38 39  1  0  0  0  0
 33 39  1  0  0  0  0
 32 40  1  0  0  0  0
 26 40  1  6  0  0  0
 40 41  2  0  0  0  0
 23 42  1  0  0  0  0
 42 43  2  0  0  0  0
  3 43  1  0  0  0  0
M  END
> <COMPOUND_ID>
MMV690027

$$$$

  Mrv0541 04191616472D          

 40 44  0  0  0  0            999 V2000
   -4.3630   -1.4972    0.0000 C   0  0  0  0  0  0  0  0  0  0  0  0
   -4.3630   -2.3222    0.0000 O   0  0  0  0  0  0  0  0  0  0  0  0
   -5.0775   -2.7347    0.0000 C   0  0  0  0  0  0  0  0  0  0  0  0
   -5.0775   -3.5597    0.0000 C   0  0  0  0  0  0  0  0  0  0  0  0
   -4.3630   -3.9722    0.0000 O   0  0  0  0  0  0  0  0  0  0  0  0
   -3.6485   -3.5597    0.0000 C   0  0  0  0  0  0  0  0  0  0  0  0
   -2.9340   -3.9722    0.0000 C   0  0  0  0  0  0  0  0  0  0  0  0
   -2.2196   -3.5597    0.0000 C   0  0  0  0  0  0  0  0  0  0  0  0
   -1.5051   -3.9722    0.0000 C   0  0  0  0  0  0  0  0  0  0  0  0
   -0.7906   -3.5597    0.0000 O   0  0  0  0  0  0  0  0  0  0  0  0
   -0.0762   -3.9722    0.0000 C   0  0  0  0  0  0  0  0  0  0  0  0
    0.6383   -3.5597    0.0000 C   0  0  0  0  0  0  0  0  0  0  0  0
    1.3528   -3.9722    0.0000 C   0  0  0  0  0  0  0  0  0  0  0  0
    1.3528   -4.7972    0.0000 C   0  0  0  0  0  0  0  0  0  0  0  0
    2.0672   -5.2097    0.0000 C   0  0  0  0  0  0  0  0  0  0  0  0
    2.8209   -4.8742    0.0000 N   0  0  0  0  0  0  0  0  0  0  0  0
    3.3730   -5.4873    0.0000 N   0  0  0  0  0  0  0  0  0  0  0  0
    2.9605   -6.2017    0.0000 N   0  0  0  0  0  0  0  0  0  0  0  0
    2.1535   -6.0302    0.0000 N   0  0  0  0  0  0  0  0  0  0  0  0
    0.6383   -5.2097    0.0000 C   0  0  0  0  0  0  0  0  0  0  0  0
   -0.0762   -4.7972    0.0000 C   0  0  0  0  0  0  0  0  0  0  0  0
   -5.7919   -3.9722    0.0000 C   0  0  0  0  0  0  0  0  0  0  0  0
   -6.5064   -3.5597    0.0000 C   0  0  0  0  0  0  0  0  0  0  0  0
   -7.2209   -3.9722    0.0000 C   0  0  0  0  0  0  0  0  0  0  0  0
   -7.3071   -4.7927    0.0000 N   0  0  0  0  0  0  0  0  0  0  0  0
   -8.1141   -4.9642    0.0000 N   0  0  0  0  0  0  0  0  0  0  0  0
   -8.4496   -5.7179    0.0000 C   0  0  0  0  0  0  0  0  0  0  0  0
   -7.9162   -6.3472    0.0000 C   0  0  0  0  0  0  0  0  0  0  0  0
   -8.0756   -7.1567    0.0000 C   0  0  0  0  0  0  0  0  0  0  0  0
   -8.8079   -7.5367    0.0000 C   0  0  0  0  0  0  0  0  0  0  0  0
   -9.5616   -7.2012    0.0000 C   0  0  0  0  0  0  0  0  0  0  0  0
   -9.7691   -6.4027    0.0000 C   0  0  0  0  0  0  0  0  0  0  0  0
   -9.2743   -5.7426    0.0000 C   0  0  0  0  0  0  0  0  0  0  0  0
   -8.5266   -4.2498    0.0000 C   0  0  0  0  0  0  0  0  0  0  0  0
   -7.9745   -3.6367    0.0000 C   0  0  0  0  0  0  0  0  0  0  0  0
   -8.5201   -3.0178    0.0000 C   0  0  0  0  0  0  0  0  0  0  0  0
   -7.7278   -2.8494    0.0000 C   0  0  0  0  0  0  0  0  0  0  0  0
   -9.3471   -4.1635    0.0000 O   0  0  0  0  0  0  0  0  0  0  0  0
   -6.5064   -2.7347    0.0000 C   0  0  0  0  0  0  0  0  0  0  0  0
   -5.7919   -2.3222    0.0000 C   0  0  0  0  0  0  0  0  0  0  0  0
  1  2  1  0  0  0  0
  2  3  1  0  0  0  0
  3  4  2  0  0  0  0
  4  5  1  0  0  0  0
  5  6  1  0  0  0  0
  6  7  1  0  0  0  0
  7  8  1  0  0  0  0
  8  9  1  0  0  0  0
  9 10  1  0  0  0  0
 10 11  1  0  0  0  0
 11 12  2  0  0  0  0
 12 13  1  0  0  0  0
 13 14  2  0  0  0  0
 14 15  1  0  0  0  0
 15 16  2  0  0  0  0
 16 17  1  0  0  0  0
 17 18  1  0  0  0  0
 18 19  2  0  0  0  0
 15 19  1  0  0  0  0
 14 20  1  0  0  0  0
 20 21  2  0  0  0  0
 11 21  1  0  0  0  0
  4 22  1  0  0  0  0
 22 23  2  0  0  0  0
 23 24  1  0  0  0  0
 24 25  2  0  0  0  0
 25 26  1  0  0  0  0
 26 27  1  0  0  0  0
 27 28  1  0  0  0  0
 28 29  1  0  0  0  0
 29 30  1  0  0  0  0
 30 31  1  0  0  0  0
 31 32  1  0  0  0  0
 32 33  1  0  0  0  0
 27 33  1  0  0  0  0
 26 34  1  0  0  0  0
 34 35  1  0  0  0  0
 24 35  1  0  0  0  0
 35 36  1  0  0  0  0
 35 37  1  0  0  0  0
 34 38  2  0  0  0  0
 23 39  1  0  0  0  0
 39 40  2  0  0  0  0
  3 40  1  0  0  0  0
M  END
> <COMPOUND_ID>
MMV690028

$$$$

  Mrv0541 04191616472D          

 26 29  0  0  1  0            999 V2000
   -0.7145   -1.2375    0.0000 C   0  0  0  0  0  0  0  0  0  0  0  0
    0.0000   -1.6500    0.0000 C   0  0  1  0  0  0  0  0  0  0  0  0
    0.0000   -2.4750    0.0000 N   0  0  0  0  0  0  0  0  0  0  0  0
    0.7145   -2.8875    0.0000 C   0  0  0  0  0  0  0  0  0  0  0  0
   -0.7145   -2.8875    0.0000 C   0  0  0  0  0  0  0  0  0  0  0  0
   -0.7145   -3.7125    0.0000 N   0  0  0  0  0  0  0  0  0  0  0  0
   -1.4289   -4.1250    0.0000 C   0  0  0  0  0  0  0  0  0  0  0  0
   -2.1434   -3.7125    0.0000 C   0  0  0  0  0  0  0  0  0  0  0  0
   -2.8579   -4.1250    0.0000 C   0  0  0  0  0  0  0  0  0  0  0  0
   -2.8579   -4.9500    0.0000 N   0  0  0  0  0  0  0  0  0  0  0  0
   -3.5724   -3.7125    0.0000 N   0  0  0  0  0  0  0  0  0  0  0  0
   -3.5724   -2.8875    0.0000 C   0  0  0  0  0  0  0  0  0  0  0  0
   -4.2868   -2.4750    0.0000 N   0  0  0  0  0  0  0  0  0  0  0  0
   -2.8579   -2.4750    0.0000 N   0  0  0  0  0  0  0  0  0  0  0  0
   -2.1434   -2.8875    0.0000 C   0  0  0  0  0  0  0  0  0  0  0  0
   -1.4289   -2.4750    0.0000 N   0  0  0  0  0  0  0  0  0  0  0  0
    0.7145   -1.2375    0.0000 C   0  0  0  0  0  0  0  0  0  0  0  0
    0.7145   -0.4125    0.0000 C   0  0  0  0  0  0  0  0  0  0  0  0
    1.4289    0.0000    0.0000 C   0  0  0  0  0  0  0  0  0  0  0  0
    2.1434   -0.4125    0.0000 C   0  0  0  0  0  0  0  0  0  0  0  0
    2.8579    0.0000    0.0000 C   0  0  0  0  0  0  0  0  0  0  0  0
    3.5724   -0.4125    0.0000 C   0  0  0  0  0  0  0  0  0  0  0  0
    3.5724   -1.2375    0.0000 C   0  0  0  0  0  0  0  0  0  0  0  0
    2.8579   -1.6500    0.0000 C   0  0  0  0  0  0  0  0  0  0  0  0
    2.1434   -1.2375    0.0000 C   0  0  0  0  0  0  0  0  0  0  0  0
    1.4289   -1.6500    0.0000 C   0  0  0  0  0  0  0  0  0  0  0  0
  2  1  1  6  0  0  0
  2  3  1  0  0  0  0
  3  4  1  0  0  0  0
  3  5  1  0  0  0  0
  5  6  2  0  0  0  0
  6  7  1  0  0  0  0
  7  8  2  0  0  0  0
  8  9  1  0  0  0  0
  9 10  1  0  0  0  0
  9 11  2  0  0  0  0
 11 12  1  0  0  0  0
 12 13  1  0  0  0  0
 12 14  2  0  0  0  0
 14 15  1  0  0  0  0
  8 15  1  0  0  0  0
 15 16  2  0  0  0  0
  5 16  1  0  0  0  0
  2 17  1  0  0  0  0
 17 18  2  0  0  0  0
 18 19  1  0  0  0  0
 19 20  2  0  0  0  0
 20 21  1  0  0  0  0
 21 22  1  0  0  0  0
 22 23  1  0  0  0  0
 23 24  1  0  0  0  0
 24 25  1  0  0  0  0
 20 25  1  0  0  0  0
 25 26  2  0  0  0  0
 17 26  1  0  0  0  0
M  END
> <COMPOUND_ID>
MMV690103

$$$$

  Mrv0541 04191616472D          

 31 34  0  0  1  0            999 V2000
   -2.1434   -7.8375    0.0000 C   0  0  0  0  0  0  0  0  0  0  0  0
   -2.8579   -7.4250    0.0000 O   0  0  0  0  0  0  0  0  0  0  0  0
   -2.8579   -6.6000    0.0000 C   0  0  0  0  0  0  0  0  0  0  0  0
   -3.5724   -6.1875    0.0000 C   0  0  0  0  0  0  0  0  0  0  0  0
   -3.5724   -5.3625    0.0000 C   0  0  0  0  0  0  0  0  0  0  0  0
   -2.8579   -4.9500    0.0000 C   0  0  0  0  0  0  0  0  0  0  0  0
   -2.8579   -4.1250    0.0000 O   0  0  0  0  0  0  0  0  0  0  0  0
   -2.1434   -3.7125    0.0000 C   0  0  0  0  0  0  0  0  0  0  0  0
   -2.1434   -2.8875    0.0000 C   0  0  0  0  0  0  0  0  0  0  0  0
   -1.4289   -2.4750    0.0000 C   0  0  0  0  0  0  0  0  0  0  0  0
   -0.7145   -2.8875    0.0000 C   0  0  0  0  0  0  0  0  0  0  0  0
   -0.7145   -3.7125    0.0000 C   0  0  0  0  0  0  0  0  0  0  0  0
   -1.4289   -4.1250    0.0000 C   0  0  0  0  0  0  0  0  0  0  0  0
    0.0000   -2.4750    0.0000 C   0  0  1  0  0  0  0  0  0  0  0  0
    0.7145   -2.8875    0.0000 C   0  0  0  0  0  0  0  0  0  0  0  0
    0.0000   -1.6500    0.0000 N   0  0  0  0  0  0  0  0  0  0  0  0
   -0.7145   -1.2375    0.0000 C   0  0  0  0  0  0  0  0  0  0  0  0
    0.7145   -1.2375    0.0000 C   0  0  0  0  0  0  0  0  0  0  0  0
    0.7145   -0.4125    0.0000 N   0  0  0  0  0  0  0  0  0  0  0  0
    1.4289    0.0000    0.0000 C   0  0  0  0  0  0  0  0  0  0  0  0
    2.1434   -0.4125    0.0000 C   0  0  0  0  0  0  0  0  0  0  0  0
    2.8579    0.0000    0.0000 C   0  0  0  0  0  0  0  0  0  0  0  0
    2.8579    0.8250    0.0000 N   0  0  0  0  0  0  0  0  0  0  0  0
    3.5724   -0.4125    0.0000 N   0  0  0  0  0  0  0  0  0  0  0  0
    3.5724   -1.2375    0.0000 C   0  0  0  0  0  0  0  0  0  0  0  0
    4.2868   -1.6500    0.0000 N   0  0  0  0  0  0  0  0  0  0  0  0
    2.8579   -1.6500    0.0000 N   0  0  0  0  0  0  0  0  0  0  0  0
    2.1434   -1.2375    0.0000 C   0  0  0  0  0  0  0  0  0  0  0  0
    1.4289   -1.6500    0.0000 N   0  0  0  0  0  0  0  0  0  0  0  0
   -2.1434   -5.3625    0.0000 C   0  0  0  0  0  0  0  0  0  0  0  0
   -2.1434   -6.1875    0.0000 C   0  0  0  0  0  0  0  0  0  0  0  0
  1  2  1  0  0  0  0
  2  3  1  0  0  0  0
  3  4  2  0  0  0  0
  4  5  1  0  0  0  0
  5  6  2  0  0  0  0
  6  7  1  0  0  0  0
  7  8  1  0  0  0  0
  8  9  2  0  0  0  0
  9 10  1  0  0  0  0
 10 11  2  0  0  0  0
 11 12  1  0  0  0  0
 12 13  2  0  0  0  0
  8 13  1  0  0  0  0
 11 14  1  0  0  0  0
 14 15  1  6  0  0  0
 14 16  1  0  0  0  0
 16 17  1  0  0  0  0
 16 18  1  0  0  0  0
 18 19  2  0  0  0  0
 19 20  1  0  0  0  0
 20 21  2  0  0  0  0
 21 22  1  0  0  0  0
 22 23  1  0  0  0  0
 22 24  2  0  0  0  0
 24 25  1  0  0  0  0
 25 26  1  0  0  0  0
 25 27  2  0  0  0  0
 27 28  1  0  0  0  0
 21 28  1  0  0  0  0
 28 29  2  0  0  0  0
 18 29  1  0  0  0  0
  6 30  1  0  0  0  0
 30 31  2  0  0  0  0
  3 31  1  0  0  0  0
M  END
> <COMPOUND_ID>
MMV690102

$$$$

  Mrv0541 04191616472D          

 25 27  0  0  0  0            999 V2000
   -2.1434   -5.3625    0.0000 C   0  0  0  0  0  0  0  0  0  0  0  0
   -1.4289   -4.9500    0.0000 O   0  0  0  0  0  0  0  0  0  0  0  0
   -1.4289   -4.1250    0.0000 C   0  0  0  0  0  0  0  0  0  0  0  0
   -2.1434   -3.7125    0.0000 C   0  0  0  0  0  0  0  0  0  0  0  0
   -2.1434   -2.8875    0.0000 C   0  0  0  0  0  0  0  0  0  0  0  0
   -1.4289   -2.4750    0.0000 C   0  0  0  0  0  0  0  0  0  0  0  0
   -1.4289   -1.6500    0.0000 O   0  0  0  0  0  0  0  0  0  0  0  0
   -0.7145   -1.2375    0.0000 C   0  0  0  0  0  0  0  0  0  0  0  0
   -0.7145   -2.8875    0.0000 C   0  0  0  0  0  0  0  0  0  0  0  0
    0.0000   -2.4750    0.0000 N   0  0  0  0  0  0  0  0  0  0  0  0
    0.0000   -1.6500    0.0000 C   0  0  0  0  0  0  0  0  0  0  0  0
    0.7145   -1.2375    0.0000 C   0  0  0  0  0  0  0  0  0  0  0  0
    0.7145   -0.4125    0.0000 C   0  0  0  0  0  0  0  0  0  0  0  0
    1.4289    0.0000    0.0000 C   0  0  0  0  0  0  0  0  0  0  0  0
    2.1434   -0.4125    0.0000 C   0  0  0  0  0  0  0  0  0  0  0  0
    2.8579    0.0000    0.0000 N   0  0  0  0  0  0  0  0  0  0  0  0
    3.5724   -0.4125    0.0000 C   0  0  0  0  0  0  0  0  0  0  0  0
    4.2868   -0.0000    0.0000 N   0  0  0  0  0  0  0  0  0  0  0  0
    3.5724   -1.2375    0.0000 N   0  0  0  0  0  0  0  0  0  0  0  0
    2.8579   -1.6500    0.0000 C   0  0  0  0  0  0  0  0  0  0  0  0
    2.8579   -2.4750    0.0000 N   0  0  0  0  0  0  0  0  0  0  0  0
    2.1434   -1.2375    0.0000 C   0  0  0  0  0  0  0  0  0  0  0  0
    1.4289   -1.6500    0.0000 C   0  0  0  0  0  0  0  0  0  0  0  0
    1.4289   -2.4750    0.0000 Cl  0  0  0  0  0  0  0  0  0  0  0  0
   -0.7145   -3.7125    0.0000 C   0  0  0  0  0  0  0  0  0  0  0  0
  1  2  1  0  0  0  0
  2  3  1  0  0  0  0
  3  4  2  0  0  0  0
  4  5  1  0  0  0  0
  5  6  2  0  0  0  0
  6  7  1  0  0  0  0
  7  8  1  0  0  0  0
  6  9  1  0  0  0  0
  9 10  1  0  0  0  0
 10 11  1  0  0  0  0
 11 12  1  0  0  0  0
 12 13  2  0  0  0  0
 13 14  1  0  0  0  0
 14 15  2  0  0  0  0
 15 16  1  0  0  0  0
 16 17  2  0  0  0  0
 17 18  1  0  0  0  0
 17 19  1  0  0  0  0
 19 20  2  0  0  0  0
 20 21  1  0  0  0  0
 20 22  1  0  0  0  0
 15 22  1  0  0  0  0
 22 23  2  0  0  0  0
 12 23  1  0  0  0  0
 23 24  1  0  0  0  0
  9 25  2  0  0  0  0
  3 25  1  0  0  0  0
M  END
> <COMPOUND_ID>
MMV675968

$$$$

  Mrv0541 04191616472D          

 23 25  0  0  0  0            999 V2000
    0.6710   -5.1170    0.0000 C   0  0  0  0  0  0  0  0  0  0  0  0
    0.1190   -4.5039    0.0000 O   0  0  0  0  0  0  0  0  0  0  0  0
    0.3739   -3.7192    0.0000 C   0  0  0  0  0  0  0  0  0  0  0  0
   -0.1781   -3.1062    0.0000 C   0  0  0  0  0  0  0  0  0  0  0  0
    0.0768   -2.3215    0.0000 C   0  0  0  0  0  0  0  0  0  0  0  0
    0.8838   -2.1500    0.0000 C   0  0  0  0  0  0  0  0  0  0  0  0
    1.4358   -2.7631    0.0000 C   0  0  0  0  0  0  0  0  0  0  0  0
    1.1809   -3.5477    0.0000 C   0  0  0  0  0  0  0  0  0  0  0  0
    1.7329   -4.1608    0.0000 O   0  0  0  0  0  0  0  0  0  0  0  0
    1.4780   -4.9454    0.0000 C   0  0  0  0  0  0  0  0  0  0  0  0
    1.1387   -1.3654    0.0000 C   0  0  0  0  0  0  0  0  0  0  0  0
    0.6538   -0.6979    0.0000 N   0  0  0  0  0  0  0  0  0  0  0  0
    1.1387   -0.0305    0.0000 N   0  0  0  0  0  0  0  0  0  0  0  0
    0.8838    0.7541    0.0000 C   0  0  0  0  0  0  0  0  0  0  0  0
    0.0768    0.9256    0.0000 C   0  0  0  0  0  0  0  0  0  0  0  0
    1.4358    1.3672    0.0000 C   0  0  0  0  0  0  0  0  0  0  0  0
    1.9233   -0.2854    0.0000 C   0  0  0  0  0  0  0  0  0  0  0  0
    2.6378    0.1271    0.0000 N   0  0  0  0  0  0  0  0  0  0  0  0
    3.3523   -0.2854    0.0000 C   0  0  0  0  0  0  0  0  0  0  0  0
    3.3523   -1.1104    0.0000 N   0  0  0  0  0  0  0  0  0  0  0  0
    2.6378   -1.5229    0.0000 C   0  0  0  0  0  0  0  0  0  0  0  0
    2.6378   -2.3479    0.0000 N   0  0  0  0  0  0  0  0  0  0  0  0
    1.9233   -1.1104    0.0000 C   0  0  0  0  0  0  0  0  0  0  0  0
  1  2  1  0  0  0  0
  2  3  1  0  0  0  0
  3  4  2  0  0  0  0
  4  5  1  0  0  0  0
  5  6  2  0  0  0  0
  6  7  1  0  0  0  0
  7  8  2  0  0  0  0
  3  8  1  0  0  0  0
  8  9  1  0  0  0  0
  9 10  1  0  0  0  0
  6 11  1  0  0  0  0
 11 12  2  0  0  0  0
 12 13  1  0  0  0  0
 13 14  1  0  0  0  0
 14 15  1  0  0  0  0
 14 16  1  0  0  0  0
 13 17  1  0  0  0  0
 17 18  2  0  0  0  0
 18 19  1  0  0  0  0
 19 20  2  0  0  0  0
 20 21  1  0  0  0  0
 21 22  1  0  0  0  0
 21 23  2  0  0  0  0
 11 23  1  0  0  0  0
 17 23  1  0  0  0  0
M  END
> <COMPOUND_ID>
MMV675993

$$$$

  Mrv0541 04191616472D          

 24 27  0  0  0  0            999 V2000
   -1.6377   -7.6518    0.0000 Cl  0  0  0  0  0  0  0  0  0  0  0  0
   -1.1528   -6.9844    0.0000 C   0  0  0  0  0  0  0  0  0  0  0  0
   -1.4884   -6.2307    0.0000 C   0  0  0  0  0  0  0  0  0  0  0  0
   -1.0034   -5.5632    0.0000 C   0  0  0  0  0  0  0  0  0  0  0  0
   -0.1830   -5.6495    0.0000 C   0  0  0  0  0  0  0  0  0  0  0  0
    0.1526   -6.4032    0.0000 C   0  0  0  0  0  0  0  0  0  0  0  0
   -0.3323   -7.0706    0.0000 C   0  0  0  0  0  0  0  0  0  0  0  0
    0.3020   -4.9820    0.0000 N   0  0  0  0  0  0  0  0  0  0  0  0
    0.0470   -4.1974    0.0000 C   0  0  0  0  0  0  0  0  0  0  0  0
    0.7145   -3.7125    0.0000 C   0  0  0  0  0  0  0  0  0  0  0  0
    0.7145   -2.8875    0.0000 C   0  0  0  0  0  0  0  0  0  0  0  0
    1.4289   -2.4750    0.0000 O   0  0  0  0  0  0  0  0  0  0  0  0
    1.4289   -1.6500    0.0000 C   0  0  0  0  0  0  0  0  0  0  0  0
    0.7145   -1.2375    0.0000 C   0  0  0  0  0  0  0  0  0  0  0  0
    0.7145   -0.4125    0.0000 C   0  0  0  0  0  0  0  0  0  0  0  0
    1.4289    0.0000    0.0000 N   0  0  0  0  0  0  0  0  0  0  0  0
    2.1434   -0.4125    0.0000 C   0  0  0  0  0  0  0  0  0  0  0  0
    2.8579    0.0000    0.0000 C   0  0  0  0  0  0  0  0  0  0  0  0
    3.5724   -0.4125    0.0000 C   0  0  0  0  0  0  0  0  0  0  0  0
    3.5724   -1.2375    0.0000 C   0  0  0  0  0  0  0  0  0  0  0  0
    2.8579   -1.6500    0.0000 C   0  0  0  0  0  0  0  0  0  0  0  0
    2.1434   -1.2375    0.0000 C   0  0  0  0  0  0  0  0  0  0  0  0
    1.3819   -4.1974    0.0000 N   0  0  0  0  0  0  0  0  0  0  0  0
    1.1270   -4.9820    0.0000 N   0  0  0  0  0  0  0  0  0  0  0  0
  1  2  1  0  0  0  0
  2  3  2  0  0  0  0
  3  4  1  0  0  0  0
  4  5  2  0  0  0  0
  5  6  1  0  0  0  0
  6  7  2  0  0  0  0
  2  7  1  0  0  0  0
  5  8  1  0  0  0  0
  8  9  1  0  0  0  0
  9 10  2  0  0  0  0
 10 11  1  0  0  0  0
 11 12  1  0  0  0  0
 12 13  1  0  0  0  0
 13 14  1  0  0  0  0
 14 15  2  0  0  0  0
 15 16  1  0  0  0  0
 16 17  2  0  0  0  0
 17 18  1  0  0  0  0
 18 19  2  0  0  0  0
 19 20  1  0  0  0  0
 20 21  2  0  0  0  0
 21 22  1  0  0  0  0
 13 22  2  0  0  0  0
 17 22  1  0  0  0  0
 10 23  1  0  0  0  0
 23 24  2  0  0  0  0
  8 24  1  0  0  0  0
M  END
> <COMPOUND_ID>
MMV675994

$$$$

  Mrv0541 04191616472D          

 32 36  0  0  0  0            999 V2000
    6.4685   -5.2809    0.0000 C   0  0  0  0  0  0  0  0  0  0  0  0
    5.9164   -4.6678    0.0000 S   0  0  0  0  0  0  0  0  0  0  0  0
    6.5295   -4.1158    0.0000 O   0  0  0  0  0  0  0  0  0  0  0  0
    5.3034   -5.2199    0.0000 O   0  0  0  0  0  0  0  0  0  0  0  0
    5.3644   -4.0547    0.0000 N   0  0  0  0  0  0  0  0  0  0  0  0
    4.5574   -4.2263    0.0000 C   0  0  0  0  0  0  0  0  0  0  0  0
    4.0054   -3.6132    0.0000 C   0  0  0  0  0  0  0  0  0  0  0  0
    4.2603   -2.8285    0.0000 C   0  0  0  0  0  0  0  0  0  0  0  0
    3.7083   -2.2155    0.0000 C   0  0  0  0  0  0  0  0  0  0  0  0
    3.9633   -1.4308    0.0000 N   0  0  0  0  0  0  0  0  0  0  0  0
    3.4783   -0.7634    0.0000 N   0  0  0  0  0  0  0  0  0  0  0  0
    3.9633   -0.0960    0.0000 C   0  0  0  0  0  0  0  0  0  0  0  0
    3.7083    0.6887    0.0000 C   0  0  0  0  0  0  0  0  0  0  0  0
    2.9013    0.8602    0.0000 C   0  0  0  0  0  0  0  0  0  0  0  0
    2.3493    0.2471    0.0000 C   0  0  0  0  0  0  0  0  0  0  0  0
    1.5423    0.4186    0.0000 C   0  0  0  0  0  0  0  0  0  0  0  0
    1.2874    1.2032    0.0000 C   0  0  0  0  0  0  0  0  0  0  0  0
    1.8394    1.8163    0.0000 C   0  0  0  0  0  0  0  0  0  0  0  0
    1.5845    2.6010    0.0000 C   0  0  0  0  0  0  0  0  0  0  0  0
    2.1365    3.2141    0.0000 C   0  0  0  0  0  0  0  0  0  0  0  0
    2.9435    3.0425    0.0000 C   0  0  0  0  0  0  0  0  0  0  0  0
    3.1984    2.2579    0.0000 C   0  0  0  0  0  0  0  0  0  0  0  0
    2.6464    1.6448    0.0000 C   0  0  0  0  0  0  0  0  0  0  0  0
    4.7479   -0.3509    0.0000 C   0  0  0  0  0  0  0  0  0  0  0  0
    5.4623    0.0616    0.0000 C   0  0  0  0  0  0  0  0  0  0  0  0
    5.4623    0.8866    0.0000 N   0  0  0  0  0  0  0  0  0  0  0  0
    6.1768   -0.3509    0.0000 N   0  0  0  0  0  0  0  0  0  0  0  0
    6.1768   -1.1759    0.0000 C   0  0  0  0  0  0  0  0  0  0  0  0
    5.4623   -1.5884    0.0000 N   0  0  0  0  0  0  0  0  0  0  0  0
    4.7479   -1.1759    0.0000 C   0  0  0  0  0  0  0  0  0  0  0  0
    5.0673   -2.6570    0.0000 C   0  0  0  0  0  0  0  0  0  0  0  0
    5.6194   -3.2701    0.0000 C   0  0  0  0  0  0  0  0  0  0  0  0
  1  2  1  0  0  0  0
  2  3  2  0  0  0  0
  2  4  2  0  0  0  0
  2  5  1  0  0  0  0
  5  6  1  0  0  0  0
  6  7  1  0  0  0  0
  7  8  1  0  0  0  0
  8  9  1  0  0  0  0
  9 10  1  0  0  0  0
 10 11  1  0  0  0  0
 11 12  2  0  0  0  0
 12 13  1  0  0  0  0
 13 14  1  0  0  0  0
 14 15  1  0  0  0  0
 15 16  2  0  0  0  0
 16 17  1  0  0  0  0
 17 18  2  0  0  0  0
 18 19  1  0  0  0  0
 19 20  2  0  0  0  0
 20 21  1  0  0  0  0
 21 22  2  0  0  0  0
 22 23  1  0  0  0  0
 14 23  2  0  0  0  0
 18 23  1  0  0  0  0
 12 24  1  0  0  0  0
 24 25  2  0  0  0  0
 25 26  1  0  0  0  0
 25 27  1  0  0  0  0
 27 28  2  0  0  0  0
 28 29  1  0  0  0  0
 29 30  2  0  0  0  0
 10 30  1  0  0  0  0
 24 30  1  0  0  0  0
  8 31  1  0  0  0  0
 31 32  1  0  0  0  0
  5 32  1  0  0  0  0
M  END
> <COMPOUND_ID>
MMV676050

$$$$

  Mrv0541 04191616472D          

 25 27  0  0  0  0            999 V2000
    4.2868   -6.6000    0.0000 C   0  0  0  0  0  0  0  0  0  0  0  0
    3.5724   -6.1875    0.0000 O   0  0  0  0  0  0  0  0  0  0  0  0
    3.5724   -5.3625    0.0000 C   0  0  0  0  0  0  0  0  0  0  0  0
    2.8579   -4.9500    0.0000 C   0  0  0  0  0  0  0  0  0  0  0  0
    2.8579   -4.1250    0.0000 C   0  0  0  0  0  0  0  0  0  0  0  0
    2.1434   -3.7125    0.0000 N   0  0  0  0  0  0  0  0  0  0  0  0
    2.1434   -2.8875    0.0000 C   0  0  0  0  0  0  0  0  0  0  0  0
    2.8579   -2.4750    0.0000 O   0  0  0  0  0  0  0  0  0  0  0  0
    1.4289   -2.4750    0.0000 C   0  0  0  0  0  0  0  0  0  0  0  0
    1.4289   -1.6500    0.0000 C   0  0  0  0  0  0  0  0  0  0  0  0
    0.7145   -1.2375    0.0000 N   0  0  0  0  0  0  0  0  0  0  0  0
    0.7145   -0.4125    0.0000 N   0  0  0  0  0  0  0  0  0  0  0  0
    0.0000    0.0000    0.0000 C   0  0  0  0  0  0  0  0  0  0  0  0
    1.4289    0.0000    0.0000 C   0  0  0  0  0  0  0  0  0  0  0  0
    1.4289    0.8250    0.0000 O   0  0  0  0  0  0  0  0  0  0  0  0
    2.1434   -0.4125    0.0000 C   0  0  0  0  0  0  0  0  0  0  0  0
    2.8579    0.0000    0.0000 C   0  0  0  0  0  0  0  0  0  0  0  0
    3.5724   -0.4125    0.0000 C   0  0  0  0  0  0  0  0  0  0  0  0
    3.5724   -1.2375    0.0000 C   0  0  0  0  0  0  0  0  0  0  0  0
    2.8579   -1.6500    0.0000 C   0  0  0  0  0  0  0  0  0  0  0  0
    2.1434   -1.2375    0.0000 C   0  0  0  0  0  0  0  0  0  0  0  0
    3.5724   -3.7125    0.0000 C   0  0  0  0  0  0  0  0  0  0  0  0
    4.2868   -4.1250    0.0000 C   0  0  0  0  0  0  0  0  0  0  0  0
    4.2868   -4.9500    0.0000 C   0  0  0  0  0  0  0  0  0  0  0  0
    5.0013   -5.3625    0.0000 Cl  0  0  0  0  0  0  0  0  0  0  0  0
  1  2  1  0  0  0  0
  2  3  1  0  0  0  0
  3  4  2  0  0  0  0
  4  5  1  0  0  0  0
  5  6  1  0  0  0  0
  6  7  1  0  0  0  0
  7  8  2  0  0  0  0
  7  9  1  0  0  0  0
  9 10  1  0  0  0  0
 10 11  2  0  0  0  0
 11 12  1  0  0  0  0
 12 13  1  0  0  0  0
 12 14  1  0  0  0  0
 14 15  2  0  0  0  0
 14 16  1  0  0  0  0
 16 17  2  0  0  0  0
 17 18  1  0  0  0  0
 18 19  2  0  0  0  0
 19 20  1  0  0  0  0
 20 21  2  0  0  0  0
 10 21  1  0  0  0  0
 16 21  1  0  0  0  0
  5 22  2  0  0  0  0
 22 23  1  0  0  0  0
 23 24  2  0  0  0  0
  3 24  1  0  0  0  0
 24 25  1  0  0  0  0
M  END
> <COMPOUND_ID>
MMV676053

$$$$

  Mrv0541 04191616472D          

 28 32  0  0  0  0            999 V2000
    0.8706   -4.1495    0.0000 N   0  0  0  0  0  0  0  0  0  0  0  0
    1.6776   -4.3211    0.0000 C   0  0  0  0  0  0  0  0  0  0  0  0
    1.9326   -5.1057    0.0000 N   0  0  0  0  0  0  0  0  0  0  0  0
    2.7395   -5.2772    0.0000 C   0  0  0  0  0  0  0  0  0  0  0  0
    3.2916   -4.6641    0.0000 N   0  0  0  0  0  0  0  0  0  0  0  0
    3.0366   -3.8795    0.0000 C   0  0  0  0  0  0  0  0  0  0  0  0
    2.2296   -3.7080    0.0000 C   0  0  0  0  0  0  0  0  0  0  0  0
    2.1434   -2.8875    0.0000 C   0  0  0  0  0  0  0  0  0  0  0  0
    1.4289   -2.4750    0.0000 C   0  0  0  0  0  0  0  0  0  0  0  0
    1.4289   -1.6500    0.0000 C   0  0  0  0  0  0  0  0  0  0  0  0
    0.7145   -1.2375    0.0000 C   0  0  0  0  0  0  0  0  0  0  0  0
    0.7145   -0.4125    0.0000 C   0  0  0  0  0  0  0  0  0  0  0  0
    1.4289    0.0000    0.0000 C   0  0  0  0  0  0  0  0  0  0  0  0
    2.1434   -0.4125    0.0000 C   0  0  0  0  0  0  0  0  0  0  0  0
    2.8579    0.0000    0.0000 C   0  0  0  0  0  0  0  0  0  0  0  0
    3.5724   -0.4125    0.0000 C   0  0  0  0  0  0  0  0  0  0  0  0
    3.5724   -1.2375    0.0000 C   0  0  0  0  0  0  0  0  0  0  0  0
    2.8579   -1.6500    0.0000 C   0  0  0  0  0  0  0  0  0  0  0  0
    2.1434   -1.2375    0.0000 C   0  0  0  0  0  0  0  0  0  0  0  0
    2.8971   -2.5519    0.0000 N   0  0  0  0  0  0  0  0  0  0  0  0
    3.4491   -3.1650    0.0000 N   0  0  0  0  0  0  0  0  0  0  0  0
    4.2696   -3.0788    0.0000 C   0  0  0  0  0  0  0  0  0  0  0  0
    4.6052   -2.3251    0.0000 C   0  0  0  0  0  0  0  0  0  0  0  0
    4.1202   -1.6577    0.0000 C   0  0  0  0  0  0  0  0  0  0  0  0
    4.4558   -0.9040    0.0000 C   0  0  0  0  0  0  0  0  0  0  0  0
    5.2763   -0.8178    0.0000 N   0  0  0  0  0  0  0  0  0  0  0  0
    5.7612   -1.4852    0.0000 C   0  0  0  0  0  0  0  0  0  0  0  0
    5.4256   -2.2389    0.0000 C   0  0  0  0  0  0  0  0  0  0  0  0
  1  2  1  0  0  0  0
  2  3  1  0  0  0  0
  3  4  2  0  0  0  0
  4  5  1  0  0  0  0
  5  6  2  0  0  0  0
  6  7  1  0  0  0  0
  2  7  2  0  0  0  0
  7  8  1  0  0  0  0
  8  9  1  0  0  0  0
  9 10  1  0  0  0  0
 10 11  1  0  0  0  0
 11 12  2  0  0  0  0
 12 13  1  0  0  0  0
 13 14  2  0  0  0  0
 14 15  1  0  0  0  0
 15 16  2  0  0  0  0
 16 17  1  0  0  0  0
 17 18  2  0  0  0  0
 18 19  1  0  0  0  0
 10 19  2  0  0  0  0
 14 19  1  0  0  0  0
  8 20  2  0  0  0  0
 20 21  1  0  0  0  0
  6 21  1  0  0  0  0
 21 22  1  0  0  0  0
 22 23  1  0  0  0  0
 23 24  1  0  0  0  0
 24 25  1  0  0  0  0
 25 26  1  0  0  0  0
 26 27  1  0  0  0  0
 27 28  1  0  0  0  0
 23 28  1  0  0  0  0
M  END
> <COMPOUND_ID>
MMV676182

$$$$

  Mrv0541 04191616472D          

 18 19  0  0  0  0            999 V2000
    0.0000   -4.1250    0.0000 C   0  0  0  0  0  0  0  0  0  0  0  0
    0.7145   -3.7125    0.0000 C   0  0  0  0  0  0  0  0  0  0  0  0
    1.4289   -4.1250    0.0000 C   0  0  0  0  0  0  0  0  0  0  0  0
    0.7145   -2.8875    0.0000 C   0  0  0  0  0  0  0  0  0  0  0  0
    1.4289   -2.4750    0.0000 O   0  0  0  0  0  0  0  0  0  0  0  0
    1.4289   -1.6500    0.0000 C   0  0  0  0  0  0  0  0  0  0  0  0
    0.7145   -1.2375    0.0000 C   0  0  0  0  0  0  0  0  0  0  0  0
    0.7145   -0.4125    0.0000 C   0  0  0  0  0  0  0  0  0  0  0  0
    1.4289    0.0000    0.0000 C   0  0  0  0  0  0  0  0  0  0  0  0
    2.1434   -0.4125    0.0000 C   0  0  0  0  0  0  0  0  0  0  0  0
    2.8579    0.0000    0.0000 C   0  0  0  0  0  0  0  0  0  0  0  0
    3.5724   -0.4125    0.0000 C   0  0  0  0  0  0  0  0  0  0  0  0
    3.5724   -1.2375    0.0000 C   0  0  0  0  0  0  0  0  0  0  0  0
    2.8579   -1.6500    0.0000 C   0  0  0  0  0  0  0  0  0  0  0  0
    2.1434   -1.2375    0.0000 C   0  0  0  0  0  0  0  0  0  0  0  0
    0.0000   -2.4750    0.0000 C   0  0  0  0  0  0  0  0  0  0  0  0
    0.0000   -1.6500    0.0000 O   0  0  0  0  0  0  0  0  0  0  0  0
   -0.7145   -2.8875    0.0000 O   0  0  0  0  0  0  0  0  0  0  0  0
  1  2  1  0  0  0  0
  2  3  1  0  0  0  0
  2  4  1  0  0  0  0
  4  5  1  0  0  0  0
  5  6  1  0  0  0  0
  6  7  1  0  0  0  0
  7  8  2  0  0  0  0
  8  9  1  0  0  0  0
  9 10  2  0  0  0  0
 10 11  1  0  0  0  0
 11 12  2  0  0  0  0
 12 13  1  0  0  0  0
 13 14  2  0  0  0  0
 14 15  1  0  0  0  0
  6 15  2  0  0  0  0
 10 15  1  0  0  0  0
  4 16  1  0  0  0  0
 16 17  2  0  0  0  0
 16 18  1  0  0  0  0
M  END
> <COMPOUND_ID>
MMV676191

$$$$

  Mrv0541 04191616472D          

 25 28  0  0  0  0            999 V2000
    3.4534   -3.0001    0.0000 C   0  0  0  0  0  0  0  0  0  0  0  0
    3.7083   -2.2155    0.0000 C   0  0  0  0  0  0  0  0  0  0  0  0
    4.4929   -2.4704    0.0000 C   0  0  0  0  0  0  0  0  0  0  0  0
    2.9237   -1.9605    0.0000 C   0  0  0  0  0  0  0  0  0  0  0  0
    3.9633   -1.4308    0.0000 N   0  0  0  0  0  0  0  0  0  0  0  0
    3.4783   -0.7634    0.0000 N   0  0  0  0  0  0  0  0  0  0  0  0
    3.9633   -0.0960    0.0000 C   0  0  0  0  0  0  0  0  0  0  0  0
    3.7083    0.6887    0.0000 C   0  0  0  0  0  0  0  0  0  0  0  0
    2.9013    0.8602    0.0000 C   0  0  0  0  0  0  0  0  0  0  0  0
    2.3493    0.2471    0.0000 C   0  0  0  0  0  0  0  0  0  0  0  0
    1.5423    0.4186    0.0000 C   0  0  0  0  0  0  0  0  0  0  0  0
    1.2874    1.2032    0.0000 C   0  0  0  0  0  0  0  0  0  0  0  0
    1.8394    1.8163    0.0000 C   0  0  0  0  0  0  0  0  0  0  0  0
    1.5845    2.6010    0.0000 C   0  0  0  0  0  0  0  0  0  0  0  0
    2.1365    3.2141    0.0000 C   0  0  0  0  0  0  0  0  0  0  0  0
    2.9435    3.0425    0.0000 C   0  0  0  0  0  0  0  0  0  0  0  0
    3.1984    2.2579    0.0000 C   0  0  0  0  0  0  0  0  0  0  0  0
    2.6464    1.6448    0.0000 C   0  0  0  0  0  0  0  0  0  0  0  0
    4.7479   -0.3509    0.0000 C   0  0  0  0  0  0  0  0  0  0  0  0
    5.4623    0.0616    0.0000 C   0  0  0  0  0  0  0  0  0  0  0  0
    5.4623    0.8866    0.0000 N   0  0  0  0  0  0  0  0  0  0  0  0
    6.1768   -0.3509    0.0000 N   0  0  0  0  0  0  0  0  0  0  0  0
    6.1768   -1.1759    0.0000 C   0  0  0  0  0  0  0  0  0  0  0  0
    5.4623   -1.5884    0.0000 N   0  0  0  0  0  0  0  0  0  0  0  0
    4.7479   -1.1759    0.0000 C   0  0  0  0  0  0  0  0  0  0  0  0
  1  2  1  0  0  0  0
  2  3  1  0  0  0  0
  2  4  1  0  0  0  0
  2  5  1  0  0  0  0
  5  6  1  0  0  0  0
  6  7  2  0  0  0  0
  7  8  1  0  0  0  0
  8  9  1  0  0  0  0
  9 10  1  0  0  0  0
 10 11  2  0  0  0  0
 11 12  1  0  0  0  0
 12 13  2  0  0  0  0
 13 14  1  0  0  0  0
 14 15  2  0  0  0  0
 15 16  1  0  0  0  0
 16 17  2  0  0  0  0
 17 18  1  0  0  0  0
  9 18  2  0  0  0  0
 13 18  1  0  0  0  0
  7 19  1  0  0  0  0
 19 20  2  0  0  0  0
 20 21  1  0  0  0  0
 20 22  1  0  0  0  0
 22 23  2  0  0  0  0
 23 24  1  0  0  0  0
 24 25  2  0  0  0  0
  5 25  1  0  0  0  0
 19 25  1  0  0  0  0
M  END
> <COMPOUND_ID>
MMV676599

$$$$

  Mrv0541 04191616472D          

 26 28  0  0  0  0            999 V2000
   -0.7145   -2.8875    0.0000 C   0  0  0  0  0  0  0  0  0  0  0  0
    0.0000   -2.4750    0.0000 C   0  0  0  0  0  0  0  0  0  0  0  0
    0.0000   -1.6500    0.0000 O   0  0  0  0  0  0  0  0  0  0  0  0
    0.7145   -1.2375    0.0000 C   0  0  0  0  0  0  0  0  0  0  0  0
    0.7145   -0.4125    0.0000 C   0  0  0  0  0  0  0  0  0  0  0  0
    1.4289    0.0000    0.0000 C   0  0  0  0  0  0  0  0  0  0  0  0
    2.1434   -0.4125    0.0000 C   0  0  0  0  0  0  0  0  0  0  0  0
    2.8579    0.0000    0.0000 C   0  0  0  0  0  0  0  0  0  0  0  0
    3.5724   -0.4125    0.0000 C   0  0  0  0  0  0  0  0  0  0  0  0
    3.5724   -1.2375    0.0000 C   0  0  0  0  0  0  0  0  0  0  0  0
    2.8579   -1.6500    0.0000 N   0  0  0  0  0  0  0  0  0  0  0  0
    2.1434   -1.2375    0.0000 C   0  0  0  0  0  0  0  0  0  0  0  0
    1.4289   -1.6500    0.0000 C   0  0  0  0  0  0  0  0  0  0  0  0
    4.2868   -0.0000    0.0000 C   0  0  0  0  0  0  0  0  0  0  0  0
    4.3731    0.8205    0.0000 N   0  0  0  0  0  0  0  0  0  0  0  0
    5.1800    0.9920    0.0000 N   0  0  0  0  0  0  0  0  0  0  0  0
    5.5925    0.2775    0.0000 C   0  0  0  0  0  0  0  0  0  0  0  0
    6.4130    0.1913    0.0000 N   0  0  0  0  0  0  0  0  0  0  0  0
    5.0405   -0.3356    0.0000 C   0  0  0  0  0  0  0  0  0  0  0  0
    5.2120   -1.1425    0.0000 C   0  0  0  0  0  0  0  0  0  0  0  0
    4.5989   -1.6946    0.0000 O   0  0  0  0  0  0  0  0  0  0  0  0
    5.9966   -1.3975    0.0000 N   0  0  0  0  0  0  0  0  0  0  0  0
    5.5156    1.7457    0.0000 C   0  0  0  0  0  0  0  0  0  0  0  0
    5.8511    2.4994    0.0000 C   0  0  0  0  0  0  0  0  0  0  0  0
    6.2693    1.4101    0.0000 C   0  0  0  0  0  0  0  0  0  0  0  0
    4.7619    2.0812    0.0000 C   0  0  0  0  0  0  0  0  0  0  0  0
  1  2  1  0  0  0  0
  2  3  1  0  0  0  0
  3  4  1  0  0  0  0
  4  5  2  0  0  0  0
  5  6  1  0  0  0  0
  6  7  2  0  0  0  0
  7  8  1  0  0  0  0
  8  9  2  0  0  0  0
  9 10  1  0  0  0  0
 10 11  2  0  0  0  0
 11 12  1  0  0  0  0
  7 12  1  0  0  0  0
 12 13  2  0  0  0  0
  4 13  1  0  0  0  0
  9 14  1  0  0  0  0
 14 15  2  0  0  0  0
 15 16  1  0  0  0  0
 16 17  1  0  0  0  0
 17 18  1  0  0  0  0
 17 19  2  0  0  0  0
 14 19  1  0  0  0  0
 19 20  1  0  0  0  0
 20 21  2  0  0  0  0
 20 22  1  0  0  0  0
 16 23  1  0  0  0  0
 23 24  1  0  0  0  0
 23 25  1  0  0  0  0
 23 26  1  0  0  0  0
M  END
> <COMPOUND_ID>
MMV688853

$$$$

  Mrv0541 04191616472D          

 31 35  0  0  0  0            999 V2000
   -3.3237   -4.5714    0.0000 C   0  0  0  0  0  0  0  0  0  0  0  0
   -3.0687   -3.7868    0.0000 C   0  0  0  0  0  0  0  0  0  0  0  0
   -3.6208   -3.1737    0.0000 O   0  0  0  0  0  0  0  0  0  0  0  0
   -3.3658   -2.3891    0.0000 C   0  0  0  0  0  0  0  0  0  0  0  0
   -3.9179   -1.7760    0.0000 C   0  0  0  0  0  0  0  0  0  0  0  0
   -3.6629   -0.9913    0.0000 C   0  0  0  0  0  0  0  0  0  0  0  0
   -2.8560   -0.8198    0.0000 C   0  0  0  0  0  0  0  0  0  0  0  0
   -2.6010   -0.0352    0.0000 C   0  0  0  0  0  0  0  0  0  0  0  0
   -1.7940    0.1363    0.0000 C   0  0  0  0  0  0  0  0  0  0  0  0
   -1.2420   -0.4768    0.0000 C   0  0  0  0  0  0  0  0  0  0  0  0
   -1.4969   -1.2614    0.0000 C   0  0  0  0  0  0  0  0  0  0  0  0
   -2.3039   -1.4329    0.0000 C   0  0  0  0  0  0  0  0  0  0  0  0
   -2.5589   -2.2175    0.0000 C   0  0  0  0  0  0  0  0  0  0  0  0
   -1.5391    0.9210    0.0000 C   0  0  0  0  0  0  0  0  0  0  0  0
   -2.0240    1.5884    0.0000 N   0  0  0  0  0  0  0  0  0  0  0  0
   -1.5391    2.2558    0.0000 N   0  0  0  0  0  0  0  0  0  0  0  0
   -1.7940    3.0405    0.0000 C   0  0  0  0  0  0  0  0  0  0  0  0
   -1.2420    3.6535    0.0000 C   0  0  0  0  0  0  0  0  0  0  0  0
   -1.4969    4.4382    0.0000 C   0  0  0  0  0  0  0  0  0  0  0  0
   -0.9449    5.0513    0.0000 C   0  0  0  0  0  0  0  0  0  0  0  0
   -0.1379    4.8797    0.0000 N   0  0  0  0  0  0  0  0  0  0  0  0
    0.4141    5.4928    0.0000 C   0  0  0  0  0  0  0  0  0  0  0  0
    0.1170    4.0951    0.0000 C   0  0  0  0  0  0  0  0  0  0  0  0
   -0.4350    3.4820    0.0000 C   0  0  0  0  0  0  0  0  0  0  0  0
   -0.7545    2.0009    0.0000 C   0  0  0  0  0  0  0  0  0  0  0  0
   -0.0400    2.4134    0.0000 N   0  0  0  0  0  0  0  0  0  0  0  0
    0.6745    2.0009    0.0000 C   0  0  0  0  0  0  0  0  0  0  0  0
    0.6745    1.1759    0.0000 N   0  0  0  0  0  0  0  0  0  0  0  0
   -0.0400    0.7634    0.0000 C   0  0  0  0  0  0  0  0  0  0  0  0
   -0.0400   -0.0616    0.0000 N   0  0  0  0  0  0  0  0  0  0  0  0
   -0.7545    1.1759    0.0000 C   0  0  0  0  0  0  0  0  0  0  0  0
  1  2  1  0  0  0  0
  2  3  1  0  0  0  0
  3  4  1  0  0  0  0
  4  5  2  0  0  0  0
  5  6  1  0  0  0  0
  6  7  2  0  0  0  0
  7  8  1  0  0  0  0
  8  9  2  0  0  0  0
  9 10  1  0  0  0  0
 10 11  2  0  0  0  0
 11 12  1  0  0  0  0
  7 12  1  0  0  0  0
 12 13  2  0  0  0  0
  4 13  1  0  0  0  0
  9 14  1  0  0  0  0
 14 15  2  0  0  0  0
 15 16  1  0  0  0  0
 16 17  1  0  0  0  0
 17 18  1  0  0  0  0
 18 19  1  0  0  0  0
 19 20  1  0  0  0  0
 20 21  1  0  0  0  0
 21 22  1  0  0  0  0
 21 23  1  0  0  0  0
 23 24  1  0  0  0  0
 18 24  1  0  0  0  0
 16 25  1  0  0  0  0
 25 26  2  0  0  0  0
 26 27  1  0  0  0  0
 27 28  2  0  0  0  0
 28 29  1  0  0  0  0
 29 30  1  0  0  0  0
 29 31  2  0  0  0  0
 14 31  1  0  0  0  0
 25 31  1  0  0  0  0
M  END
> <COMPOUND_ID>
MMV688854

$$$$

  Mrv0541 04191616472D          

 18 19  0  0  1  0            999 V2000
   -0.8182    1.3170    0.0000 N   0  0  0  0  0  0  0  0  0  0  0  0
   -0.2661    1.9301    0.0000 C   0  0  0  0  0  0  0  0  0  0  0  0
   -0.5211    2.7147    0.0000 N   0  0  0  0  0  0  0  0  0  0  0  0
    0.0309    3.3278    0.0000 C   0  0  0  0  0  0  0  0  0  0  0  0
    0.8379    3.1563    0.0000 N   0  0  0  0  0  0  0  0  0  0  0  0
    1.0929    2.3716    0.0000 C   0  0  0  0  0  0  0  0  0  0  0  0
    0.5408    1.7586    0.0000 C   0  0  0  0  0  0  0  0  0  0  0  0
    0.9533    1.0441    0.0000 N   0  0  0  0  0  0  0  0  0  0  0  0
    1.7603    1.2156    0.0000 C   0  0  0  0  0  0  0  0  0  0  0  0
    1.8465    2.0361    0.0000 N   0  0  0  0  0  0  0  0  0  0  0  0
    2.5610    2.4486    0.0000 C   0  0  0  0  0  0  0  0  0  0  0  0
    3.2755    2.0361    0.0000 C   0  0  1  0  0  0  0  0  0  0  0  0
    3.2755    1.2111    0.0000 O   0  0  0  0  0  0  0  0  0  0  0  0
    3.9899    2.4486    0.0000 C   0  0  1  0  0  0  0  0  0  0  0  0
    3.9899    3.2736    0.0000 O   0  0  0  0  0  0  0  0  0  0  0  0
    4.7044    2.0361    0.0000 C   0  0  0  0  0  0  0  0  0  0  0  0
    5.4189    2.4486    0.0000 O   0  0  0  0  0  0  0  0  0  0  0  0
    4.7044    1.2111    0.0000 O   0  0  0  0  0  0  0  0  0  0  0  0
  1  2  1  0  0  0  0
  2  3  1  0  0  0  0
  3  4  2  0  0  0  0
  4  5  1  0  0  0  0
  5  6  2  0  0  0  0
  6  7  1  0  0  0  0
  2  7  2  0  0  0  0
  7  8  1  0  0  0  0
  8  9  2  0  0  0  0
  9 10  1  0  0  0  0
  6 10  1  0  0  0  0
 10 11  1  0  0  0  0
 11 12  1  0  0  0  0
 12 13  1  6  0  0  0
 12 14  1  0  0  0  0
 14 15  1  1  0  0  0
 14 16  1  0  0  0  0
 16 17  2  0  0  0  0
 16 18  1  0  0  0  0
M  END
> <COMPOUND_ID>
MMV689255

$$$$

  Mrv0541 04191616472D          

 27 29  0  0  0  0            999 V2000
    0.8580    1.5479    0.0000 C   0  0  0  0  0  0  0  0  0  0  0  0
    1.6650    1.7194    0.0000 O   0  0  0  0  0  0  0  0  0  0  0  0
    1.9199    2.5041    0.0000 C   0  0  0  0  0  0  0  0  0  0  0  0
    1.3679    3.1172    0.0000 O   0  0  0  0  0  0  0  0  0  0  0  0
    2.7269    2.6756    0.0000 C   0  0  0  0  0  0  0  0  0  0  0  0
    2.9818    3.4602    0.0000 C   0  0  0  0  0  0  0  0  0  0  0  0
    2.4298    4.0733    0.0000 C   0  0  0  0  0  0  0  0  0  0  0  0
    3.7888    3.6317    0.0000 N   0  0  0  0  0  0  0  0  0  0  0  0
    4.3408    3.0186    0.0000 C   0  0  0  0  0  0  0  0  0  0  0  0
    4.0859    2.2340    0.0000 C   0  0  0  0  0  0  0  0  0  0  0  0
    3.2789    2.0625    0.0000 C   0  0  0  0  0  0  0  0  0  0  0  0
    3.2789    1.2375    0.0000 C   0  0  0  0  0  0  0  0  0  0  0  0
    3.9934    0.8250    0.0000 C   0  0  0  0  0  0  0  0  0  0  0  0
    3.9934    0.0000    0.0000 C   0  0  0  0  0  0  0  0  0  0  0  0
    3.2789   -0.4125    0.0000 C   0  0  0  0  0  0  0  0  0  0  0  0
    2.5645    0.0000    0.0000 C   0  0  0  0  0  0  0  0  0  0  0  0
    1.7798   -0.2549    0.0000 N   0  0  0  0  0  0  0  0  0  0  0  0
    1.2949    0.4125    0.0000 O   0  0  0  0  0  0  0  0  0  0  0  0
    1.7798    1.0799    0.0000 N   0  0  0  0  0  0  0  0  0  0  0  0
    2.5645    0.8250    0.0000 C   0  0  0  0  0  0  0  0  0  0  0  0
    4.6379    1.6209    0.0000 C   0  0  0  0  0  0  0  0  0  0  0  0
    4.3830    0.8363    0.0000 O   0  0  0  0  0  0  0  0  0  0  0  0
    5.4449    1.7925    0.0000 O   0  0  0  0  0  0  0  0  0  0  0  0
    5.9969    1.1794    0.0000 C   0  0  0  0  0  0  0  0  0  0  0  0
    6.8039    1.3509    0.0000 C   0  0  0  0  0  0  0  0  0  0  0  0
    5.7420    0.3947    0.0000 C   0  0  0  0  0  0  0  0  0  0  0  0
    5.1478    3.1902    0.0000 C   0  0  0  0  0  0  0  0  0  0  0  0
  1  2  1  0  0  0  0
  2  3  1  0  0  0  0
  3  4  2  0  0  0  0
  3  5  1  0  0  0  0
  5  6  2  0  0  0  0
  6  7  1  0  0  0  0
  6  8  1  0  0  0  0
  8  9  1  0  0  0  0
  9 10  2  0  0  0  0
 10 11  1  0  0  0  0
  5 11  1  0  0  0  0
 11 12  1  0  0  0  0
 12 13  2  0  0  0  0
 13 14  1  0  0  0  0
 14 15  2  0  0  0  0
 15 16  1  0  0  0  0
 16 17  2  0  0  0  0
 17 18  1  0  0  0  0
 18 19  1  0  0  0  0
 19 20  2  0  0  0  0
 12 20  1  0  0  0  0
 16 20  1  0  0  0  0
 10 21  1  0  0  0  0
 21 22  2  0  0  0  0
 21 23  1  0  0  0  0
 23 24  1  0  0  0  0
 24 25  1  0  0  0  0
 24 26  1  0  0  0  0
  9 27  1  0  0  0  0
M  END
> <COMPOUND_ID>
MMV001493

$$$$

  Mrv0541 04191616472D          

 13 14  0  0  0  0            999 V2000
    1.4289   -2.4750    0.0000 O   0  0  0  0  0  0  0  0  0  0  0  0
    1.4289   -1.6500    0.0000 C   0  0  0  0  0  0  0  0  0  0  0  0
    0.7145   -1.2375    0.0000 C   0  0  0  0  0  0  0  0  0  0  0  0
    0.0000   -1.6500    0.0000 I   0  0  0  0  0  0  0  0  0  0  0  0
    0.7145   -0.4125    0.0000 C   0  0  0  0  0  0  0  0  0  0  0  0
    1.4289    0.0000    0.0000 C   0  0  0  0  0  0  0  0  0  0  0  0
    1.4289    0.8250    0.0000 I   0  0  0  0  0  0  0  0  0  0  0  0
    2.1434   -0.4125    0.0000 C   0  0  0  0  0  0  0  0  0  0  0  0
    2.8579    0.0000    0.0000 C   0  0  0  0  0  0  0  0  0  0  0  0
    3.5724   -0.4125    0.0000 C   0  0  0  0  0  0  0  0  0  0  0  0
    3.5724   -1.2375    0.0000 C   0  0  0  0  0  0  0  0  0  0  0  0
    2.8579   -1.6500    0.0000 N   0  0  0  0  0  0  0  0  0  0  0  0
    2.1434   -1.2375    0.0000 C   0  0  0  0  0  0  0  0  0  0  0  0
  1  2  1  0  0  0  0
  2  3  1  0  0  0  0
  3  4  1  0  0  0  0
  3  5  2  0  0  0  0
  5  6  1  0  0  0  0
  6  7  1  0  0  0  0
  6  8  2  0  0  0  0
  8  9  1  0  0  0  0
  9 10  2  0  0  0  0
 10 11  1  0  0  0  0
 11 12  2  0  0  0  0
 12 13  1  0  0  0  0
  2 13  2  0  0  0  0
  8 13  1  0  0  0  0
M  END
> <COMPOUND_ID>
MMV002817

$$$$

  Mrv0541 04191616472D          

 32 35  0  0  0  0            999 V2000
    0.0000   -1.6500    0.0000 C   0  0  0  0  0  0  0  0  0  0  0  0
    0.7145   -1.2375    0.0000 C   0  0  0  0  0  0  0  0  0  0  0  0
    0.7145   -0.4125    0.0000 C   0  0  0  0  0  0  0  0  0  0  0  0
    1.4289    0.0000    0.0000 C   0  0  0  0  0  0  0  0  0  0  0  0
    1.4289    0.8250    0.0000 O   0  0  0  0  0  0  0  0  0  0  0  0
    2.1434   -0.4125    0.0000 C   0  0  0  0  0  0  0  0  0  0  0  0
    2.8579    0.0000    0.0000 C   0  0  0  0  0  0  0  0  0  0  0  0
    2.8579    0.8250    0.0000 F   0  0  0  0  0  0  0  0  0  0  0  0
    3.5724   -0.4125    0.0000 C   0  0  0  0  0  0  0  0  0  0  0  0
    3.5724   -1.2375    0.0000 C   0  0  0  0  0  0  0  0  0  0  0  0
    4.2868   -1.6500    0.0000 F   0  0  0  0  0  0  0  0  0  0  0  0
    2.8579   -1.6500    0.0000 C   0  0  0  0  0  0  0  0  0  0  0  0
    2.1434   -1.2375    0.0000 C   0  0  0  0  0  0  0  0  0  0  0  0
    1.4289   -1.6500    0.0000 N   0  0  0  0  0  0  0  0  0  0  0  0
    0.0000    0.0000    0.0000 C   0  0  0  0  0  0  0  0  0  0  0  0
   -0.7145   -0.4125    0.0000 C   0  0  0  0  0  0  0  0  0  0  0  0
   -1.4289   -0.0000    0.0000 C   0  0  0  0  0  0  0  0  0  0  0  0
   -1.4289    0.8250    0.0000 C   0  0  0  0  0  0  0  0  0  0  0  0
   -2.1434    1.2375    0.0000 O   0  0  0  0  0  0  0  0  0  0  0  0
   -2.1434    2.0625    0.0000 C   0  0  0  0  0  0  0  0  0  0  0  0
   -2.8579    2.4750    0.0000 C   0  0  0  0  0  0  0  0  0  0  0  0
   -2.8579    3.3000    0.0000 C   0  0  0  0  0  0  0  0  0  0  0  0
   -2.1434    3.7125    0.0000 C   0  0  0  0  0  0  0  0  0  0  0  0
   -2.1434    4.5375    0.0000 O   0  0  0  0  0  0  0  0  0  0  0  0
   -2.8579    4.9500    0.0000 C   0  0  0  0  0  0  0  0  0  0  0  0
   -3.5724    5.3625    0.0000 F   0  0  0  0  0  0  0  0  0  0  0  0
   -2.4454    5.6645    0.0000 F   0  0  0  0  0  0  0  0  0  0  0  0
   -3.2704    4.2355    0.0000 F   0  0  0  0  0  0  0  0  0  0  0  0
   -1.4289    3.3000    0.0000 C   0  0  0  0  0  0  0  0  0  0  0  0
   -1.4289    2.4750    0.0000 C   0  0  0  0  0  0  0  0  0  0  0  0
   -0.7145    1.2375    0.0000 C   0  0  0  0  0  0  0  0  0  0  0  0
    0.0000    0.8250    0.0000 C   0  0  0  0  0  0  0  0  0  0  0  0
  1  2  1  0  0  0  0
  2  3  2  0  0  0  0
  3  4  1  0  0  0  0
  4  5  2  0  0  0  0
  4  6  1  0  0  0  0
  6  7  2  0  0  0  0
  7  8  1  0  0  0  0
  7  9  1  0  0  0  0
  9 10  2  0  0  0  0
 10 11  1  0  0  0  0
 10 12  1  0  0  0  0
 12 13  2  0  0  0  0
  6 13  1  0  0  0  0
 13 14  1  0  0  0  0
  2 14  1  0  0  0  0
  3 15  1  0  0  0  0
 15 16  2  0  0  0  0
 16 17  1  0  0  0  0
 17 18  2  0  0  0  0
 18 19  1  0  0  0  0
 19 20  1  0  0  0  0
 20 21  2  0  0  0  0
 21 22  1  0  0  0  0
 22 23  2  0  0  0  0
 23 24  1  0  0  0  0
 24 25  1  0  0  0  0
 25 26  1  0  0  0  0
 25 27  1  0  0  0  0
 25 28  1  0  0  0  0
 23 29  1  0  0  0  0
 29 30  2  0  0  0  0
 20 30  1  0  0  0  0
 18 31  1  0  0  0  0
 31 32  2  0  0  0  0
 15 32  1  0  0  0  0
M  END
> <COMPOUND_ID>
MMV671636

$$$$

  Mrv0541 04191616472D          

 30 33  0  0  0  0            999 V2000
    0.4243   -1.7779    0.0000 C   0  0  0  0  0  0  0  0  0  0  0  0
    1.1387   -1.3654    0.0000 C   0  0  0  0  0  0  0  0  0  0  0  0
    1.4743   -2.1191    0.0000 C   0  0  0  0  0  0  0  0  0  0  0  0
    0.6538   -0.6979    0.0000 O   0  0  0  0  0  0  0  0  0  0  0  0
    1.1387   -0.0305    0.0000 B   0  0  0  0  0  0  0  0  0  0  0  0
    0.8838    0.7541    0.0000 O   0  0  0  0  0  0  0  0  0  0  0  0
    1.9233   -0.2854    0.0000 C   0  0  0  0  0  0  0  0  0  0  0  0
    2.6378    0.1271    0.0000 C   0  0  0  0  0  0  0  0  0  0  0  0
    3.3523   -0.2854    0.0000 C   0  0  0  0  0  0  0  0  0  0  0  0
    3.3523   -1.1104    0.0000 C   0  0  0  0  0  0  0  0  0  0  0  0
    2.6378   -1.5229    0.0000 C   0  0  0  0  0  0  0  0  0  0  0  0
    1.9233   -1.1104    0.0000 C   0  0  0  0  0  0  0  0  0  0  0  0
    4.0668   -1.5229    0.0000 C   0  0  0  0  0  0  0  0  0  0  0  0
    4.8204   -1.1874    0.0000 N   0  0  0  0  0  0  0  0  0  0  0  0
    5.3725   -1.8005    0.0000 O   0  0  0  0  0  0  0  0  0  0  0  0
    4.9600   -2.5150    0.0000 C   0  0  0  0  0  0  0  0  0  0  0  0
    4.1530   -2.3434    0.0000 C   0  0  0  0  0  0  0  0  0  0  0  0
    5.6223   -3.0068    0.0000 C   0  0  0  0  0  0  0  0  0  0  0  0
    6.3794   -2.6792    0.0000 C   0  0  0  0  0  0  0  0  0  0  0  0
    7.0418   -3.1711    0.0000 C   0  0  0  0  0  0  0  0  0  0  0  0
    7.7989   -2.8434    0.0000 Cl  0  0  0  0  0  0  0  0  0  0  0  0
    6.9469   -3.9906    0.0000 C   0  0  0  0  0  0  0  0  0  0  0  0
    7.6093   -4.4825    0.0000 F   0  0  0  0  0  0  0  0  0  0  0  0
    6.1898   -4.3183    0.0000 C   0  0  0  0  0  0  0  0  0  0  0  0
    6.0950   -5.1378    0.0000 Cl  0  0  0  0  0  0  0  0  0  0  0  0
    5.5275   -3.8264    0.0000 C   0  0  0  0  0  0  0  0  0  0  0  0
    4.8823   -3.3363    0.0000 C   0  0  0  0  0  0  0  0  0  0  0  0
    4.8047   -4.1576    0.0000 F   0  0  0  0  0  0  0  0  0  0  0  0
    4.0610   -3.2586    0.0000 F   0  0  0  0  0  0  0  0  0  0  0  0
    5.3023   -4.0464    0.0000 F   0  0  0  0  0  0  0  0  0  0  0  0
  1  2  1  0  0  0  0
  2  3  1  0  0  0  0
  2  4  1  0  0  0  0
  4  5  1  0  0  0  0
  5  6  1  0  0  0  0
  5  7  1  0  0  0  0
  7  8  2  0  0  0  0
  8  9  1  0  0  0  0
  9 10  2  0  0  0  0
 10 11  1  0  0  0  0
 11 12  2  0  0  0  0
  2 12  1  0  0  0  0
  7 12  1  0  0  0  0
 10 13  1  0  0  0  0
 13 14  2  0  0  0  0
 14 15  1  0  0  0  0
 15 16  1  0  0  0  0
 16 17  1  0  0  0  0
 13 17  1  0  0  0  0
 16 18  1  0  0  0  0
 18 19  2  0  0  0  0
 19 20  1  0  0  0  0
 20 21  1  0  0  0  0
 20 22  2  0  0  0  0
 22 23  1  0  0  0  0
 22 24  1  0  0  0  0
 24 25  1  0  0  0  0
 24 26  2  0  0  0  0
 18 26  1  0  0  0  0
 16 27  1  0  0  0  0
 27 28  1  0  0  0  0
 27 29  1  0  0  0  0
 27 30  1  0  0  0  0
M  END
> <COMPOUND_ID>
MMV687775

$$$$

  Mrv0541 04191616472D          

 41 45  0  0  0  0            999 V2000
    6.9246    3.1729    0.0000 C   0  0  0  0  0  0  0  0  0  0  0  0
    6.9246    2.3479    0.0000 C   0  0  0  0  0  0  0  0  0  0  0  0
    7.6391    1.9354    0.0000 C   0  0  0  0  0  0  0  0  0  0  0  0
    7.6391    1.1104    0.0000 C   0  0  0  0  0  0  0  0  0  0  0  0
    6.9246    0.6979    0.0000 C   0  0  0  0  0  0  0  0  0  0  0  0
    6.2102    1.1104    0.0000 C   0  0  0  0  0  0  0  0  0  0  0  0
    6.2102    1.9354    0.0000 C   0  0  0  0  0  0  0  0  0  0  0  0
    5.4957    2.3479    0.0000 C   0  0  0  0  0  0  0  0  0  0  0  0
    5.4957    3.1729    0.0000 O   0  0  0  0  0  0  0  0  0  0  0  0
    4.7812    1.9354    0.0000 N   0  0  0  0  0  0  0  0  0  0  0  0
    4.0668    2.3479    0.0000 C   0  0  0  0  0  0  0  0  0  0  0  0
    3.3523    1.9354    0.0000 C   0  0  0  0  0  0  0  0  0  0  0  0
    3.3523    1.1104    0.0000 C   0  0  0  0  0  0  0  0  0  0  0  0
    2.6378    0.6979    0.0000 C   0  0  0  0  0  0  0  0  0  0  0  0
    1.9233    1.1104    0.0000 C   0  0  0  0  0  0  0  0  0  0  0  0
    1.1387    0.8555    0.0000 B   0  0  0  0  0  0  0  0  0  0  0  0
    0.8838    0.0709    0.0000 O   0  0  0  0  0  0  0  0  0  0  0  0
    0.6538    1.5229    0.0000 O   0  0  0  0  0  0  0  0  0  0  0  0
    1.1387    2.1904    0.0000 C   0  0  0  0  0  0  0  0  0  0  0  0
    0.4243    2.6029    0.0000 C   0  0  0  0  0  0  0  0  0  0  0  0
    1.4743    2.9441    0.0000 C   0  0  0  0  0  0  0  0  0  0  0  0
    1.9233    1.9354    0.0000 C   0  0  0  0  0  0  0  0  0  0  0  0
    2.6378    2.3479    0.0000 C   0  0  0  0  0  0  0  0  0  0  0  0
    8.3536    0.6979    0.0000 C   0  0  0  0  0  0  0  0  0  0  0  0
    9.1073    1.0335    0.0000 N   0  0  0  0  0  0  0  0  0  0  0  0
    9.6593    0.4204    0.0000 O   0  0  0  0  0  0  0  0  0  0  0  0
    9.2468   -0.2941    0.0000 C   0  0  0  0  0  0  0  0  0  0  0  0
    8.4398   -0.1225    0.0000 C   0  0  0  0  0  0  0  0  0  0  0  0
    9.9091   -0.7860    0.0000 C   0  0  0  0  0  0  0  0  0  0  0  0
   10.6663   -0.4583    0.0000 C   0  0  0  0  0  0  0  0  0  0  0  0
   11.3286   -0.9502    0.0000 C   0  0  0  0  0  0  0  0  0  0  0  0
   12.0857   -0.6225    0.0000 Cl  0  0  0  0  0  0  0  0  0  0  0  0
   11.2338   -1.7697    0.0000 C   0  0  0  0  0  0  0  0  0  0  0  0
   11.8961   -2.2616    0.0000 F   0  0  0  0  0  0  0  0  0  0  0  0
   10.4766   -2.0974    0.0000 C   0  0  0  0  0  0  0  0  0  0  0  0
   10.3818   -2.9169    0.0000 Cl  0  0  0  0  0  0  0  0  0  0  0  0
    9.8143   -1.6055    0.0000 C   0  0  0  0  0  0  0  0  0  0  0  0
    9.1691   -1.1154    0.0000 C   0  0  0  0  0  0  0  0  0  0  0  0
    9.0915   -1.9367    0.0000 F   0  0  0  0  0  0  0  0  0  0  0  0
    8.3478   -1.0378    0.0000 F   0  0  0  0  0  0  0  0  0  0  0  0
    9.5891   -1.8255    0.0000 F   0  0  0  0  0  0  0  0  0  0  0  0
  1  2  1  0  0  0  0
  2  3  2  0  0  0  0
  3  4  1  0  0  0  0
  4  5  2  0  0  0  0
  5  6  1  0  0  0  0
  6  7  2  0  0  0  0
  2  7  1  0  0  0  0
  7  8  1  0  0  0  0
  8  9  2  0  0  0  0
  8 10  1  0  0  0  0
 10 11  1  0  0  0  0
 11 12  1  0  0  0  0
 12 13  2  0  0  0  0
 13 14  1  0  0  0  0
 14 15  2  0  0  0  0
 15 16  1  0  0  0  0
 16 17  1  0  0  0  0
 16 18  1  0  0  0  0
 18 19  1  0  0  0  0
 19 20  1  0  0  0  0
 19 21  1  0  0  0  0
 19 22  1  0  0  0  0
 15 22  1  0  0  0  0
 22 23  2  0  0  0  0
 12 23  1  0  0  0  0
  4 24  1  0  0  0  0
 24 25  2  0  0  0  0
 25 26  1  0  0  0  0
 26 27  1  0  0  0  0
 27 28  1  0  0  0  0
 24 28  1  0  0  0  0
 27 29  1  0  0  0  0
 29 30  2  0  0  0  0
 30 31  1  0  0  0  0
 31 32  1  0  0  0  0
 31 33  2  0  0  0  0
 33 34  1  0  0  0  0
 33 35  1  0  0  0  0
 35 36  1  0  0  0  0
 35 37  2  0  0  0  0
 29 37  1  0  0  0  0
 27 38  1  0  0  0  0
 38 39  1  0  0  0  0
 38 40  1  0  0  0  0
 38 41  1  0  0  0  0
M  END
> <COMPOUND_ID>
MMV687776

$$$$

  Mrv0541 04191616472D          

 27 29  0  0  0  0            999 V2000
    0.7145   -0.4125    0.0000 N   0  0  0  0  0  0  0  0  0  0  0  0
    0.7145   -1.2375    0.0000 C   0  0  0  0  0  0  0  0  0  0  0  0
    1.4289   -1.6500    0.0000 N   0  0  0  0  0  0  0  0  0  0  0  0
    1.4289   -2.4750    0.0000 C   0  0  0  0  0  0  0  0  0  0  0  0
    0.7145   -2.8875    0.0000 C   0  0  0  0  0  0  0  0  0  0  0  0
    0.0000   -2.4750    0.0000 C   0  0  0  0  0  0  0  0  0  0  0  0
    0.0000   -1.6500    0.0000 C   0  0  0  0  0  0  0  0  0  0  0  0
   -0.7145   -1.2375    0.0000 C   0  0  0  0  0  0  0  0  0  0  0  0
   -1.4289   -1.6500    0.0000 C   0  0  0  0  0  0  0  0  0  0  0  0
   -2.1434   -1.2375    0.0000 C   0  0  0  0  0  0  0  0  0  0  0  0
   -2.1434   -0.4125    0.0000 C   0  0  0  0  0  0  0  0  0  0  0  0
   -1.4289    0.0000    0.0000 N   0  0  0  0  0  0  0  0  0  0  0  0
   -0.7145   -0.4125    0.0000 C   0  0  0  0  0  0  0  0  0  0  0  0
   -2.8579    0.0000    0.0000 C   0  0  0  0  0  0  0  0  0  0  0  0
   -3.5724    0.4125    0.0000 F   0  0  0  0  0  0  0  0  0  0  0  0
   -3.2704   -0.7145    0.0000 F   0  0  0  0  0  0  0  0  0  0  0  0
   -2.4454    0.7145    0.0000 F   0  0  0  0  0  0  0  0  0  0  0  0
    0.7145   -3.7125    0.0000 C   0  0  0  0  0  0  0  0  0  0  0  0
    1.4289   -4.1250    0.0000 C   0  0  0  0  0  0  0  0  0  0  0  0
    1.4289   -4.9500    0.0000 C   0  0  0  0  0  0  0  0  0  0  0  0
    0.7145   -5.3625    0.0000 C   0  0  0  0  0  0  0  0  0  0  0  0
   -0.0000   -4.9500    0.0000 N   0  0  0  0  0  0  0  0  0  0  0  0
    0.0000   -4.1250    0.0000 C   0  0  0  0  0  0  0  0  0  0  0  0
    0.7145   -6.1875    0.0000 C   0  0  0  0  0  0  0  0  0  0  0  0
    0.7145   -7.0125    0.0000 F   0  0  0  0  0  0  0  0  0  0  0  0
   -0.1105   -6.1875    0.0000 F   0  0  0  0  0  0  0  0  0  0  0  0
    1.5395   -6.1875    0.0000 F   0  0  0  0  0  0  0  0  0  0  0  0
  1  2  1  0  0  0  0
  2  3  2  0  0  0  0
  3  4  1  0  0  0  0
  4  5  2  0  0  0  0
  5  6  1  0  0  0  0
  6  7  2  0  0  0  0
  2  7  1  0  0  0  0
  7  8  1  0  0  0  0
  8  9  2  0  0  0  0
  9 10  1  0  0  0  0
 10 11  2  0  0  0  0
 11 12  1  0  0  0  0
 12 13  2  0  0  0  0
  8 13  1  0  0  0  0
 11 14  1  0  0  0  0
 14 15  1  0  0  0  0
 14 16  1  0  0  0  0
 14 17  1  0  0  0  0
  5 18  1  0  0  0  0
 18 19  2  0  0  0  0
 19 20  1  0  0  0  0
 20 21  2  0  0  0  0
 21 22  1  0  0  0  0
 22 23  2  0  0  0  0
 18 23  1  0  0  0  0
 21 24  1  0  0  0  0
 24 25  1  0  0  0  0
 24 26  1  0  0  0  0
 24 27  1  0  0  0  0
M  END
> <COMPOUND_ID>
MMV668727

$$$$

  Mrv0541 04191616472D          

 26 28  0  0  0  0            999 V2000
    2.1434    2.8875    0.0000 C   0  0  0  0  0  0  0  0  0  0  0  0
    2.8579    2.4750    0.0000 O   0  0  0  0  0  0  0  0  0  0  0  0
    2.8579    1.6500    0.0000 C   0  0  0  0  0  0  0  0  0  0  0  0
    3.5724    1.2375    0.0000 C   0  0  0  0  0  0  0  0  0  0  0  0
    3.5724    0.4125    0.0000 C   0  0  0  0  0  0  0  0  0  0  0  0
    2.8579    0.0000    0.0000 C   0  0  0  0  0  0  0  0  0  0  0  0
    2.1434    0.4125    0.0000 C   0  0  0  0  0  0  0  0  0  0  0  0
    2.1434    1.2375    0.0000 C   0  0  0  0  0  0  0  0  0  0  0  0
    2.8579   -0.8250    0.0000 N   0  0  0  0  0  0  0  0  0  0  0  0
    2.1434   -1.2375    0.0000 C   0  0  0  0  0  0  0  0  0  0  0  0
    2.1434   -2.0625    0.0000 C   0  0  0  0  0  0  0  0  0  0  0  0
    1.4289   -2.4750    0.0000 C   0  0  0  0  0  0  0  0  0  0  0  0
    1.4289   -3.3000    0.0000 C   0  0  0  0  0  0  0  0  0  0  0  0
    0.7145   -3.7125    0.0000 C   0  0  0  0  0  0  0  0  0  0  0  0
    0.0000   -3.3000    0.0000 C   0  0  0  0  0  0  0  0  0  0  0  0
    0.0000   -2.4750    0.0000 C   0  0  0  0  0  0  0  0  0  0  0  0
   -0.7145   -2.0625    0.0000 C   0  0  0  0  0  0  0  0  0  0  0  0
    0.7145   -2.0625    0.0000 N   0  0  0  0  0  0  0  0  0  0  0  0
    3.5724   -1.2375    0.0000 C   0  0  0  0  0  0  0  0  0  0  0  0
    4.2868   -0.8250    0.0000 O   0  0  0  0  0  0  0  0  0  0  0  0
    3.5724   -2.0625    0.0000 C   0  0  0  0  0  0  0  0  0  0  0  0
    4.2868   -2.4750    0.0000 C   0  0  0  0  0  0  0  0  0  0  0  0
    4.2868   -3.3000    0.0000 C   0  0  0  0  0  0  0  0  0  0  0  0
    3.5724   -3.7125    0.0000 C   0  0  0  0  0  0  0  0  0  0  0  0
    2.8579   -3.3000    0.0000 C   0  0  0  0  0  0  0  0  0  0  0  0
    2.8579   -2.4750    0.0000 C   0  0  0  0  0  0  0  0  0  0  0  0
  1  2  1  0  0  0  0
  2  3  1  0  0  0  0
  3  4  2  0  0  0  0
  4  5  1  0  0  0  0
  5  6  2  0  0  0  0
  6  7  1  0  0  0  0
  7  8  2  0  0  0  0
  3  8  1  0  0  0  0
  6  9  1  0  0  0  0
  9 10  1  0  0  0  0
 10 11  1  0  0  0  0
 11 12  1  0  0  0  0
 12 13  2  0  0  0  0
 13 14  1  0  0  0  0
 14 15  2  0  0  0  0
 15 16  1  0  0  0  0
 16 17  1  0  0  0  0
 16 18  2  0  0  0  0
 12 18  1  0  0  0  0
  9 19  1  0  0  0  0
 19 20  2  0  0  0  0
 19 21  1  0  0  0  0
 21 22  1  0  0  0  0
 22 23  1  0  0  0  0
 23 24  1  0  0  0  0
 24 25  1  0  0  0  0
 25 26  1  0  0  0  0
 21 26  1  0  0  0  0
M  END
> <COMPOUND_ID>
MMV675996

$$$$

  Mrv0541 04191616472D          

 28 30  0  0  0  0            999 V2000
    1.4289   -2.4750    0.0000 C   0  0  0  0  0  0  0  0  0  0  0  0
    0.7145   -2.0625    0.0000 C   0  0  0  0  0  0  0  0  0  0  0  0
    0.0000   -2.4750    0.0000 O   0  0  0  0  0  0  0  0  0  0  0  0
    0.7145   -1.2375    0.0000 N   0  0  0  0  0  0  0  0  0  0  0  0
    1.4289   -0.8250    0.0000 C   0  0  0  0  0  0  0  0  0  0  0  0
    2.1434   -1.2375    0.0000 C   0  0  0  0  0  0  0  0  0  0  0  0
    2.8579   -0.8250    0.0000 N   0  0  0  0  0  0  0  0  0  0  0  0
    3.5724   -1.2375    0.0000 C   0  0  0  0  0  0  0  0  0  0  0  0
    3.5724   -2.0625    0.0000 O   0  0  0  0  0  0  0  0  0  0  0  0
    4.2868   -0.8250    0.0000 C   0  0  0  0  0  0  0  0  0  0  0  0
    4.2868    0.0000    0.0000 C   0  0  0  0  0  0  0  0  0  0  0  0
    5.0013    0.4125    0.0000 C   0  0  0  0  0  0  0  0  0  0  0  0
    5.7158   -0.0000    0.0000 C   0  0  0  0  0  0  0  0  0  0  0  0
    6.4302    0.4125    0.0000 F   0  0  0  0  0  0  0  0  0  0  0  0
    5.7158   -0.8250    0.0000 C   0  0  0  0  0  0  0  0  0  0  0  0
    5.0013   -1.2375    0.0000 C   0  0  0  0  0  0  0  0  0  0  0  0
    2.8579   -0.0000    0.0000 C   0  0  0  0  0  0  0  0  0  0  0  0
    2.1434    0.4125    0.0000 C   0  0  0  0  0  0  0  0  0  0  0  0
    2.1434    1.2375    0.0000 C   0  0  0  0  0  0  0  0  0  0  0  0
    2.8579    1.6500    0.0000 C   0  0  0  0  0  0  0  0  0  0  0  0
    3.5724    1.2375    0.0000 C   0  0  0  0  0  0  0  0  0  0  0  0
    3.5724    0.4125    0.0000 C   0  0  0  0  0  0  0  0  0  0  0  0
    0.0000   -0.8250    0.0000 C   0  0  0  0  0  0  0  0  0  0  0  0
   -0.7145   -1.2375    0.0000 C   0  0  0  0  0  0  0  0  0  0  0  0
   -1.4289   -0.8250    0.0000 C   0  0  0  0  0  0  0  0  0  0  0  0
   -1.4289   -0.0000    0.0000 C   0  0  0  0  0  0  0  0  0  0  0  0
   -0.7145    0.4125    0.0000 C   0  0  0  0  0  0  0  0  0  0  0  0
    0.0000   -0.0000    0.0000 C   0  0  0  0  0  0  0  0  0  0  0  0
  1  2  1  0  0  0  0
  2  3  2  0  0  0  0
  2  4  1  0  0  0  0
  4  5  1  0  0  0  0
  5  6  1  0  0  0  0
  6  7  1  0  0  0  0
  7  8  1  0  0  0  0
  8  9  2  0  0  0  0
  8 10  1  0  0  0  0
 10 11  2  0  0  0  0
 11 12  1  0  0  0  0
 12 13  2  0  0  0  0
 13 14  1  0  0  0  0
 13 15  1  0  0  0  0
 15 16  2  0  0  0  0
 10 16  1  0  0  0  0
  7 17  1  0  0  0  0
 17 18  2  0  0  0  0
 18 19  1  0  0  0  0
 19 20  2  0  0  0  0
 20 21  1  0  0  0  0
 21 22  2  0  0  0  0
 17 22  1  0  0  0  0
  4 23  1  0  0  0  0
 23 24  2  0  0  0  0
 24 25  1  0  0  0  0
 25 26  2  0  0  0  0
 26 27  1  0  0  0  0
 27 28  2  0  0  0  0
 23 28  1  0  0  0  0
M  END
> <COMPOUND_ID>
MMV676064

$$$$

  Mrv0541 04191616472D          

 17 18  0  0  0  0            999 V2000
    1.4289   -1.6500    0.0000 S   0  0  0  0  0  0  0  0  0  0  0  0
    1.4289   -2.4750    0.0000 C   0  0  0  0  0  0  0  0  0  0  0  0
    2.0964   -2.9599    0.0000 N   0  0  0  0  0  0  0  0  0  0  0  0
    1.8414   -3.7445    0.0000 N   0  0  0  0  0  0  0  0  0  0  0  0
    1.0164   -3.7445    0.0000 C   0  0  0  0  0  0  0  0  0  0  0  0
    0.5315   -4.4120    0.0000 N   0  0  0  0  0  0  0  0  0  0  0  0
    0.8671   -5.1657    0.0000 C   0  0  0  0  0  0  0  0  0  0  0  0
    1.6876   -5.2519    0.0000 O   0  0  0  0  0  0  0  0  0  0  0  0
    0.3822   -5.8331    0.0000 C   0  0  0  0  0  0  0  0  0  0  0  0
    0.7177   -6.5868    0.0000 C   0  0  0  0  0  0  0  0  0  0  0  0
    0.2328   -7.2542    0.0000 C   0  0  0  0  0  0  0  0  0  0  0  0
    0.5683   -8.0079    0.0000 Br  0  0  0  0  0  0  0  0  0  0  0  0
   -0.5877   -7.1680    0.0000 C   0  0  0  0  0  0  0  0  0  0  0  0
   -0.9232   -6.4143    0.0000 C   0  0  0  0  0  0  0  0  0  0  0  0
   -0.4383   -5.7469    0.0000 C   0  0  0  0  0  0  0  0  0  0  0  0
   -0.7739   -4.9932    0.0000 Cl  0  0  0  0  0  0  0  0  0  0  0  0
    0.7615   -2.9599    0.0000 S   0  0  0  0  0  0  0  0  0  0  0  0
  1  2  1  0  0  0  0
  2  3  2  0  0  0  0
  3  4  1  0  0  0  0
  4  5  2  0  0  0  0
  5  6  1  0  0  0  0
  6  7  1  0  0  0  0
  7  8  2  0  0  0  0
  7  9  1  0  0  0  0
  9 10  2  0  0  0  0
 10 11  1  0  0  0  0
 11 12  1  0  0  0  0
 11 13  2  0  0  0  0
 13 14  1  0  0  0  0
 14 15  2  0  0  0  0
  9 15  1  0  0  0  0
 15 16  1  0  0  0  0
  5 17  1  0  0  0  0
  2 17  1  0  0  0  0
M  END
> <COMPOUND_ID>
MMV676492

$$$$

  Mrv0541 04191616472D          

 25 27  0  0  1  0            999 V2000
   -1.5356    4.0634    0.0000 C   0  0  0  0  0  0  0  0  0  0  0  0
   -0.8212    3.6509    0.0000 C   0  0  0  0  0  0  0  0  0  0  0  0
   -1.2337    2.9364    0.0000 C   0  0  0  0  0  0  0  0  0  0  0  0
   -0.4087    4.3654    0.0000 C   0  0  0  0  0  0  0  0  0  0  0  0
   -0.1067    3.2384    0.0000 C   0  0  0  0  0  0  0  0  0  0  0  0
    0.6078    3.6509    0.0000 C   0  0  0  0  0  0  0  0  0  0  0  0
    1.3222    3.2384    0.0000 C   0  0  0  0  0  0  0  0  0  0  0  0
    1.3222    2.4134    0.0000 C   0  0  0  0  0  0  0  0  0  0  0  0
    2.0367    2.0009    0.0000 N   0  0  0  0  0  0  0  0  0  0  0  0
    2.7512    2.4134    0.0000 C   0  0  2  0  0  0  0  0  0  0  0  0
    2.7512    3.2384    0.0000 C   0  0  0  0  0  0  0  0  0  0  0  0
    3.4656    3.6509    0.0000 C   0  0  0  0  0  0  0  0  0  0  0  0
    4.1801    3.2384    0.0000 C   0  0  0  0  0  0  0  0  0  0  0  0
    4.1801    2.4134    0.0000 C   0  0  0  0  0  0  0  0  0  0  0  0
    3.4656    2.0009    0.0000 C   0  0  1  0  0  0  0  0  0  0  0  0
    3.4656    1.1759    0.0000 N   0  0  0  0  0  0  0  0  0  0  0  0
    4.1801    0.7634    0.0000 C   0  0  0  0  0  0  0  0  0  0  0  0
    4.8946    1.1759    0.0000 O   0  0  0  0  0  0  0  0  0  0  0  0
    4.1801   -0.0616    0.0000 C   0  0  0  0  0  0  0  0  0  0  0  0
    4.8476   -0.5465    0.0000 O   0  0  0  0  0  0  0  0  0  0  0  0
    4.5926   -1.3312    0.0000 C   0  0  0  0  0  0  0  0  0  0  0  0
    3.7676   -1.3312    0.0000 C   0  0  0  0  0  0  0  0  0  0  0  0
    3.5127   -0.5465    0.0000 C   0  0  0  0  0  0  0  0  0  0  0  0
    0.6078    2.0009    0.0000 C   0  0  0  0  0  0  0  0  0  0  0  0
   -0.1067    2.4134    0.0000 C   0  0  0  0  0  0  0  0  0  0  0  0
  1  2  1  0  0  0  0
  2  3  1  0  0  0  0
  2  4  1  0  0  0  0
  2  5  1  0  0  0  0
  5  6  2  0  0  0  0
  6  7  1  0  0  0  0
  7  8  2  0  0  0  0
  8  9  1  0  0  0  0
 10  9  1  6  0  0  0
 10 11  1  0  0  0  0
 11 12  1  0  0  0  0
 12 13  1  0  0  0  0
 13 14  1  0  0  0  0
 14 15  1  0  0  0  0
 10 15  1  0  0  0  0
 15 16  1  1  0  0  0
 16 17  1  0  0  0  0
 17 18  2  0  0  0  0
 17 19  1  0  0  0  0
 19 20  1  0  0  0  0
 20 21  1  0  0  0  0
 21 22  2  0  0  0  0
 22 23  1  0  0  0  0
 19 23  2  0  0  0  0
  8 24  1  0  0  0  0
 24 25  2  0  0  0  0
  5 25  1  0  0  0  0
M  END
> <COMPOUND_ID>
MMV675969

$$$$

  Mrv0541 04191616472D          

 21 22  0  0  0  0            999 V2000
    1.4289    2.4750    0.0000 C   0  0  0  0  0  0  0  0  0  0  0  0
    2.1434    2.0625    0.0000 O   0  0  0  0  0  0  0  0  0  0  0  0
    2.1434    1.2375    0.0000 C   0  0  0  0  0  0  0  0  0  0  0  0
    2.8579    0.8250    0.0000 C   0  0  0  0  0  0  0  0  0  0  0  0
    2.8579   -0.0000    0.0000 C   0  0  0  0  0  0  0  0  0  0  0  0
    2.1434   -0.4125    0.0000 C   0  0  0  0  0  0  0  0  0  0  0  0
    1.4289   -0.0000    0.0000 C   0  0  0  0  0  0  0  0  0  0  0  0
    1.4289    0.8250    0.0000 C   0  0  0  0  0  0  0  0  0  0  0  0
    2.1434   -1.2375    0.0000 N   0  0  0  0  0  0  0  0  0  0  0  0
    1.4289   -1.6500    0.0000 C   0  0  0  0  0  0  0  0  0  0  0  0
    1.4289   -2.4750    0.0000 C   0  0  0  0  0  0  0  0  0  0  0  0
    0.7145   -2.8875    0.0000 C   0  0  0  0  0  0  0  0  0  0  0  0
    0.7145   -3.7125    0.0000 C   0  0  0  0  0  0  0  0  0  0  0  0
    0.0000   -4.1250    0.0000 C   0  0  0  0  0  0  0  0  0  0  0  0
   -0.7145   -3.7125    0.0000 C   0  0  0  0  0  0  0  0  0  0  0  0
   -0.7145   -2.8875    0.0000 C   0  0  0  0  0  0  0  0  0  0  0  0
   -1.4289   -2.4750    0.0000 C   0  0  0  0  0  0  0  0  0  0  0  0
    0.0000   -2.4750    0.0000 N   0  0  0  0  0  0  0  0  0  0  0  0
    2.8579   -1.6500    0.0000 C   0  0  0  0  0  0  0  0  0  0  0  0
    3.5724   -1.2375    0.0000 O   0  0  0  0  0  0  0  0  0  0  0  0
    2.8579   -2.4750    0.0000 C   0  0  0  0  0  0  0  0  0  0  0  0
  1  2  1  0  0  0  0
  2  3  1  0  0  0  0
  3  4  2  0  0  0  0
  4  5  1  0  0  0  0
  5  6  2  0  0  0  0
  6  7  1  0  0  0  0
  7  8  2  0  0  0  0
  3  8  1  0  0  0  0
  6  9  1  0  0  0  0
  9 10  1  0  0  0  0
 10 11  1  0  0  0  0
 11 12  1  0  0  0  0
 12 13  2  0  0  0  0
 13 14  1  0  0  0  0
 14 15  2  0  0  0  0
 15 16  1  0  0  0  0
 16 17  1  0  0  0  0
 16 18  2  0  0  0  0
 12 18  1  0  0  0  0
  9 19  1  0  0  0  0
 19 20  2  0  0  0  0
 19 21  1  0  0  0  0
M  END
> <COMPOUND_ID>
MMV675995

$$$$

  Mrv0541 04191616472D          

 25 27  0  0  0  0            999 V2000
   -1.4289   -3.3000    0.0000 F   0  0  0  0  0  0  0  0  0  0  0  0
   -0.7145   -2.8875    0.0000 C   0  0  0  0  0  0  0  0  0  0  0  0
   -0.7145   -2.0625    0.0000 C   0  0  0  0  0  0  0  0  0  0  0  0
    0.0000   -1.6500    0.0000 C   0  0  0  0  0  0  0  0  0  0  0  0
    0.7145   -2.0625    0.0000 C   0  0  0  0  0  0  0  0  0  0  0  0
    0.7145   -2.8875    0.0000 C   0  0  0  0  0  0  0  0  0  0  0  0
    0.0000   -3.3000    0.0000 C   0  0  0  0  0  0  0  0  0  0  0  0
    1.4289   -1.6500    0.0000 C   0  0  0  0  0  0  0  0  0  0  0  0
    1.4289   -0.8250    0.0000 O   0  0  0  0  0  0  0  0  0  0  0  0
    2.1434   -2.0625    0.0000 N   0  0  0  0  0  0  0  0  0  0  0  0
    2.8579   -1.6500    0.0000 C   0  0  0  0  0  0  0  0  0  0  0  0
    3.5724   -2.0625    0.0000 C   0  0  0  0  0  0  0  0  0  0  0  0
    4.2868   -1.6500    0.0000 N   0  0  0  0  0  0  0  0  0  0  0  0
    5.0013   -2.0625    0.0000 C   0  0  0  0  0  0  0  0  0  0  0  0
    5.7158   -1.6500    0.0000 C   0  0  0  0  0  0  0  0  0  0  0  0
    6.4302   -2.0625    0.0000 C   0  0  0  0  0  0  0  0  0  0  0  0
    6.4302   -2.8875    0.0000 C   0  0  0  0  0  0  0  0  0  0  0  0
    5.7158   -3.3000    0.0000 C   0  0  0  0  0  0  0  0  0  0  0  0
    5.0013   -2.8875    0.0000 C   0  0  0  0  0  0  0  0  0  0  0  0
    2.1434   -2.8875    0.0000 C   0  0  0  0  0  0  0  0  0  0  0  0
    2.8579   -3.3000    0.0000 C   0  0  0  0  0  0  0  0  0  0  0  0
    2.8579   -4.1250    0.0000 C   0  0  0  0  0  0  0  0  0  0  0  0
    2.1434   -4.5375    0.0000 C   0  0  0  0  0  0  0  0  0  0  0  0
    1.4289   -4.1250    0.0000 C   0  0  0  0  0  0  0  0  0  0  0  0
    1.4289   -3.3000    0.0000 C   0  0  0  0  0  0  0  0  0  0  0  0
  1  2  1  0  0  0  0
  2  3  2  0  0  0  0
  3  4  1  0  0  0  0
  4  5  2  0  0  0  0
  5  6  1  0  0  0  0
  6  7  2  0  0  0  0
  2  7  1  0  0  0  0
  5  8  1  0  0  0  0
  8  9  2  0  0  0  0
  8 10  1  0  0  0  0
 10 11  1  0  0  0  0
 11 12  1  0  0  0  0
 12 13  1  0  0  0  0
 13 14  1  0  0  0  0
 14 15  2  0  0  0  0
 15 16  1  0  0  0  0
 16 17  2  0  0  0  0
 17 18  1  0  0  0  0
 18 19  2  0  0  0  0
 14 19  1  0  0  0  0
 10 20  1  0  0  0  0
 20 21  2  0  0  0  0
 21 22  1  0  0  0  0
 22 23  2  0  0  0  0
 23 24  1  0  0  0  0
 24 25  2  0  0  0  0
 20 25  1  0  0  0  0
M  END
> <COMPOUND_ID>
MMV676204

$$$$

  Mrv0541 04191616472D          

 34 38  0  0  0  0            999 V2000
   -1.9126   -2.5015    0.0000 C   0  0  0  0  0  0  0  0  0  0  0  0
   -1.7410   -1.6946    0.0000 O   0  0  0  0  0  0  0  0  0  0  0  0
   -2.3541   -1.1425    0.0000 C   0  0  0  0  0  0  0  0  0  0  0  0
   -3.1388   -1.3975    0.0000 O   0  0  0  0  0  0  0  0  0  0  0  0
   -2.1826   -0.3356    0.0000 C   0  0  0  0  0  0  0  0  0  0  0  0
   -2.7346    0.2775    0.0000 C   0  0  0  0  0  0  0  0  0  0  0  0
   -3.5596    0.2775    0.0000 C   0  0  0  0  0  0  0  0  0  0  0  0
   -3.9721    0.9920    0.0000 C   0  0  0  0  0  0  0  0  0  0  0  0
   -3.5596    1.7065    0.0000 N   0  0  0  0  0  0  0  0  0  0  0  0
   -3.9721    2.4209    0.0000 C   0  0  0  0  0  0  0  0  0  0  0  0
   -4.7971    2.4209    0.0000 C   0  0  0  0  0  0  0  0  0  0  0  0
   -5.2096    1.7065    0.0000 C   0  0  0  0  0  0  0  0  0  0  0  0
   -6.0346    1.7065    0.0000 C   0  0  0  0  0  0  0  0  0  0  0  0
   -6.4471    2.4209    0.0000 C   0  0  0  0  0  0  0  0  0  0  0  0
   -6.0346    3.1354    0.0000 C   0  0  0  0  0  0  0  0  0  0  0  0
   -5.2096    3.1354    0.0000 C   0  0  0  0  0  0  0  0  0  0  0  0
   -2.7346    1.7065    0.0000 C   0  0  0  0  0  0  0  0  0  0  0  0
   -2.3221    0.9920    0.0000 C   0  0  0  0  0  0  0  0  0  0  0  0
   -1.5152    0.8205    0.0000 S   0  0  0  0  0  0  0  0  0  0  0  0
   -1.4289    0.0000    0.0000 C   0  0  0  0  0  0  0  0  0  0  0  0
   -0.7145   -0.4125    0.0000 N   0  0  0  0  0  0  0  0  0  0  0  0
    0.0000    0.0000    0.0000 C   0  0  0  0  0  0  0  0  0  0  0  0
    0.0000    0.8250    0.0000 O   0  0  0  0  0  0  0  0  0  0  0  0
    0.7145   -0.4125    0.0000 C   0  0  0  0  0  0  0  0  0  0  0  0
    1.4289    0.0000    0.0000 C   0  0  0  0  0  0  0  0  0  0  0  0
    2.1434   -0.4125    0.0000 C   0  0  0  0  0  0  0  0  0  0  0  0
    2.8579    0.0000    0.0000 C   0  0  0  0  0  0  0  0  0  0  0  0
    3.5724   -0.4125    0.0000 C   0  0  0  0  0  0  0  0  0  0  0  0
    3.5724   -1.2375    0.0000 C   0  0  0  0  0  0  0  0  0  0  0  0
    2.8579   -1.6500    0.0000 C   0  0  0  0  0  0  0  0  0  0  0  0
    2.1434   -1.2375    0.0000 C   0  0  0  0  0  0  0  0  0  0  0  0
    1.4289   -1.6500    0.0000 O   0  0  0  0  0  0  0  0  0  0  0  0
    0.7145   -1.2375    0.0000 C   0  0  0  0  0  0  0  0  0  0  0  0
    0.0000   -1.6500    0.0000 O   0  0  0  0  0  0  0  0  0  0  0  0
  1  2  1  0  0  0  0
  2  3  1  0  0  0  0
  3  4  2  0  0  0  0
  3  5  1  0  0  0  0
  5  6  1  0  0  0  0
  6  7  1  0  0  0  0
  7  8  1  0  0  0  0
  8  9  1  0  0  0  0
  9 10  1  0  0  0  0
 10 11  1  0  0  0  0
 11 12  2  0  0  0  0
 12 13  1  0  0  0  0
 13 14  2  0  0  0  0
 14 15  1  0  0  0  0
 15 16  2  0  0  0  0
 11 16  1  0  0  0  0
  9 17  1  0  0  0  0
 17 18  1  0  0  0  0
  6 18  2  0  0  0  0
 18 19  1  0  0  0  0
 19 20  1  0  0  0  0
  5 20  2  0  0  0  0
 20 21  1  0  0  0  0
 21 22  1  0  0  0  0
 22 23  2  0  0  0  0
 22 24  1  0  0  0  0
 24 25  2  0  0  0  0
 25 26  1  0  0  0  0
 26 27  2  0  0  0  0
 27 28  1  0  0  0  0
 28 29  2  0  0  0  0
 29 30  1  0  0  0  0
 30 31  2  0  0  0  0
 26 31  1  0  0  0  0
 31 32  1  0  0  0  0
 32 33  1  0  0  0  0
 24 33  1  0  0  0  0
 33 34  2  0  0  0  0
M  END
> <COMPOUND_ID>
MMV676480

$$$$

  Mrv0541 04191616472D          

 36 39  0  0  1  0            999 V2000
    1.4289   -4.9500    0.0000 C   0  0  0  0  0  0  0  0  0  0  0  0
    2.1434   -5.3625    0.0000 C   0  0  0  0  0  0  0  0  0  0  0  0
    2.1434   -6.1875    0.0000 C   0  0  0  0  0  0  0  0  0  0  0  0
    2.8579   -6.6000    0.0000 C   0  0  0  0  0  0  0  0  0  0  0  0
    2.8579   -7.4250    0.0000 C   0  0  0  0  0  0  0  0  0  0  0  0
    3.5724   -7.8375    0.0000 C   0  0  0  0  0  0  0  0  0  0  0  0
    3.5724   -8.6625    0.0000 C   0  0  0  0  0  0  0  0  0  0  0  0
    2.8579   -9.0750    0.0000 C   0  0  0  0  0  0  0  0  0  0  0  0
    2.8579   -9.9000    0.0000 N   0  0  0  0  0  0  0  0  0  0  0  0
    2.1434  -10.3125    0.0000 C   0  0  0  0  0  0  0  0  0  0  0  0
    1.4289   -9.9000    0.0000 O   0  0  0  0  0  0  0  0  0  0  0  0
    2.1434  -11.1375    0.0000 N   0  0  0  0  0  0  0  0  0  0  0  0
    1.4289  -11.5500    0.0000 C   0  0  0  0  0  0  0  0  0  0  0  0
    1.4289  -12.3750    0.0000 C   0  0  0  0  0  0  0  0  0  0  0  0
    0.7145  -12.7875    0.0000 C   0  0  0  0  0  0  0  0  0  0  0  0
   -0.0000  -12.3750    0.0000 C   0  0  0  0  0  0  0  0  0  0  0  0
   -0.7145  -12.7875    0.0000 O   0  0  0  0  0  0  0  0  0  0  0  0
   -0.7145  -13.6125    0.0000 C   0  0  1  0  0  0  0  0  0  0  0  0
   -0.0000  -14.0250    0.0000 C   0  0  0  0  0  0  0  0  0  0  0  0
   -0.0000  -14.8500    0.0000 C   0  0  0  0  0  0  0  0  0  0  0  0
   -0.7145  -15.2625    0.0000 C   0  0  0  0  0  0  0  0  0  0  0  0
   -1.4289  -14.8500    0.0000 C   0  0  0  0  0  0  0  0  0  0  0  0
   -1.4289  -14.0250    0.0000 C   0  0  2  0  0  0  0  0  0  0  0  0
   -2.1434  -13.6125    0.0000 N   0  0  0  0  0  0  0  0  0  0  0  0
   -2.1434  -12.7875    0.0000 C   0  0  0  0  0  0  0  0  0  0  0  0
   -2.8579  -14.0250    0.0000 C   0  0  0  0  0  0  0  0  0  0  0  0
   -2.8579  -14.8500    0.0000 C   0  0  0  0  0  0  0  0  0  0  0  0
   -3.5724  -15.2625    0.0000 C   0  0  0  0  0  0  0  0  0  0  0  0
   -4.2868  -14.8500    0.0000 C   0  0  0  0  0  0  0  0  0  0  0  0
   -4.2868  -14.0250    0.0000 C   0  0  0  0  0  0  0  0  0  0  0  0
   -3.5724  -13.6125    0.0000 C   0  0  0  0  0  0  0  0  0  0  0  0
   -0.0000  -11.5500    0.0000 C   0  0  0  0  0  0  0  0  0  0  0  0
   -0.7145  -11.1375    0.0000 F   0  0  0  0  0  0  0  0  0  0  0  0
    0.7145  -11.1375    0.0000 C   0  0  0  0  0  0  0  0  0  0  0  0
    2.1434   -8.6625    0.0000 C   0  0  0  0  0  0  0  0  0  0  0  0
    2.1434   -7.8375    0.0000 C   0  0  0  0  0  0  0  0  0  0  0  0
  1  2  1  0  0  0  0
  2  3  1  0  0  0  0
  3  4  1  0  0  0  0
  4  5  1  0  0  0  0
  5  6  2  0  0  0  0
  6  7  1  0  0  0  0
  7  8  2  0  0  0  0
  8  9  1  0  0  0  0
  9 10  1  0  0  0  0
 10 11  2  0  0  0  0
 10 12  1  0  0  0  0
 12 13  1  0  0  0  0
 13 14  2  0  0  0  0
 14 15  1  0  0  0  0
 15 16  2  0  0  0  0
 16 17  1  0  0  0  0
 18 17  1  1  0  0  0
 18 19  1  0  0  0  0
 19 20  1  0  0  0  0
 20 21  1  0  0  0  0
 21 22  1  0  0  0  0
 22 23  1  0  0  0  0
 18 23  1  0  0  0  0
 23 24  1  6  0  0  0
 24 25  1  0  0  0  0
 24 26  1  0  0  0  0
 26 27  2  0  0  0  0
 27 28  1  0  0  0  0
 28 29  2  0  0  0  0
 29 30  1  0  0  0  0
 30 31  2  0  0  0  0
 26 31  1  0  0  0  0
 16 32  1  0  0  0  0
 32 33  1  0  0  0  0
 32 34  2  0  0  0  0
 13 34  1  0  0  0  0
  8 35  1  0  0  0  0
 35 36  2  0  0  0  0
  5 36  1  0  0  0  0
M  END
> <COMPOUND_ID>
MMV676063

$$$$

  Mrv0541 04191616472D          

 32 36  0  0  0  0            999 V2000
    9.4317    0.9999    0.0000 C   0  0  0  0  0  0  0  0  0  0  0  0
    9.0192    0.2854    0.0000 C   0  0  0  0  0  0  0  0  0  0  0  0
    8.1942    0.2854    0.0000 C   0  0  0  0  0  0  0  0  0  0  0  0
    7.7093   -0.3820    0.0000 N   0  0  0  0  0  0  0  0  0  0  0  0
    6.9246   -0.1271    0.0000 C   0  0  0  0  0  0  0  0  0  0  0  0
    6.2102   -0.5396    0.0000 C   0  0  0  0  0  0  0  0  0  0  0  0
    5.4957   -0.1271    0.0000 C   0  0  0  0  0  0  0  0  0  0  0  0
    5.4957    0.6979    0.0000 C   0  0  0  0  0  0  0  0  0  0  0  0
    6.2102    1.1104    0.0000 C   0  0  0  0  0  0  0  0  0  0  0  0
    6.9246    0.6979    0.0000 N   0  0  0  0  0  0  0  0  0  0  0  0
    7.7093    0.9529    0.0000 C   0  0  0  0  0  0  0  0  0  0  0  0
    7.9642    1.7375    0.0000 N   0  0  0  0  0  0  0  0  0  0  0  0
    7.4122    2.3506    0.0000 C   0  0  0  0  0  0  0  0  0  0  0  0
    8.7712    1.9090    0.0000 C   0  0  0  0  0  0  0  0  0  0  0  0
    9.0261    2.6937    0.0000 C   0  0  0  0  0  0  0  0  0  0  0  0
    8.5412    3.3611    0.0000 C   0  0  0  0  0  0  0  0  0  0  0  0
    9.0261    4.0285    0.0000 C   0  0  0  0  0  0  0  0  0  0  0  0
    9.8107    3.7736    0.0000 C   0  0  0  0  0  0  0  0  0  0  0  0
    9.8107    2.9486    0.0000 S   0  0  0  0  0  0  0  0  0  0  0  0
    4.7812    1.1104    0.0000 C   0  0  0  0  0  0  0  0  0  0  0  0
    4.0668    0.6979    0.0000 O   0  0  0  0  0  0  0  0  0  0  0  0
    4.7812    1.9354    0.0000 N   0  0  0  0  0  0  0  0  0  0  0  0
    4.0668    2.3479    0.0000 C   0  0  0  0  0  0  0  0  0  0  0  0
    3.3523    1.9354    0.0000 C   0  0  0  0  0  0  0  0  0  0  0  0
    3.3523    1.1104    0.0000 C   0  0  0  0  0  0  0  0  0  0  0  0
    2.6378    0.6979    0.0000 C   0  0  0  0  0  0  0  0  0  0  0  0
    1.9233    1.1104    0.0000 C   0  0  0  0  0  0  0  0  0  0  0  0
    1.1387    0.8555    0.0000 O   0  0  0  0  0  0  0  0  0  0  0  0
    0.6538    1.5229    0.0000 C   0  0  0  0  0  0  0  0  0  0  0  0
    1.1387    2.1904    0.0000 O   0  0  0  0  0  0  0  0  0  0  0  0
    1.9233    1.9354    0.0000 C   0  0  0  0  0  0  0  0  0  0  0  0
    2.6378    2.3479    0.0000 C   0  0  0  0  0  0  0  0  0  0  0  0
  1  2  1  0  0  0  0
  2  3  1  0  0  0  0
  3  4  1  0  0  0  0
  4  5  2  0  0  0  0
  5  6  1  0  0  0  0
  6  7  2  0  0  0  0
  7  8  1  0  0  0  0
  8  9  2  0  0  0  0
  9 10  1  0  0  0  0
  5 10  1  0  0  0  0
 10 11  1  0  0  0  0
  3 11  2  0  0  0  0
 11 12  1  0  0  0  0
 12 13  1  0  0  0  0
 12 14  1  0  0  0  0
 14 15  1  0  0  0  0
 15 16  2  0  0  0  0
 16 17  1  0  0  0  0
 17 18  2  0  0  0  0
 18 19  1  0  0  0  0
 15 19  1  0  0  0  0
  8 20  1  0  0  0  0
 20 21  2  0  0  0  0
 20 22  1  0  0  0  0
 22 23  1  0  0  0  0
 23 24  1  0  0  0  0
 24 25  2  0  0  0  0
 25 26  1  0  0  0  0
 26 27  2  0  0  0  0
 27 28  1  0  0  0  0
 28 29  1  0  0  0  0
 29 30  1  0  0  0  0
 30 31  1  0  0  0  0
 27 31  1  0  0  0  0
 31 32  2  0  0  0  0
 24 32  1  0  0  0  0
M  END
> <COMPOUND_ID>
MMV407539

$$$$

  Mrv0541 04191616472D          

 25 27  0  0  0  0            999 V2000
    0.7145   -3.7125    0.0000 C   0  0  0  0  0  0  0  0  0  0  0  0
    1.4289   -4.1250    0.0000 C   0  0  0  0  0  0  0  0  0  0  0  0
    2.1434   -3.7125    0.0000 S   0  0  0  0  0  0  0  0  0  0  0  0
    2.5559   -4.4270    0.0000 O   0  0  0  0  0  0  0  0  0  0  0  0
    1.7309   -2.9980    0.0000 O   0  0  0  0  0  0  0  0  0  0  0  0
    2.8579   -3.3000    0.0000 N   0  0  0  0  0  0  0  0  0  0  0  0
    3.5724   -3.7125    0.0000 C   0  0  0  0  0  0  0  0  0  0  0  0
    3.5724   -4.5375    0.0000 C   0  0  0  0  0  0  0  0  0  0  0  0
    4.2398   -5.0224    0.0000 O   0  0  0  0  0  0  0  0  0  0  0  0
    3.9849   -5.8070    0.0000 C   0  0  0  0  0  0  0  0  0  0  0  0
    3.1599   -5.8070    0.0000 C   0  0  0  0  0  0  0  0  0  0  0  0
    2.9049   -5.0224    0.0000 C   0  0  0  0  0  0  0  0  0  0  0  0
    2.8579   -2.4750    0.0000 C   0  0  0  0  0  0  0  0  0  0  0  0
    3.5724   -2.0625    0.0000 C   0  0  0  0  0  0  0  0  0  0  0  0
    3.5724   -1.2375    0.0000 C   0  0  0  0  0  0  0  0  0  0  0  0
    4.2868   -0.8250    0.0000 C   0  0  0  0  0  0  0  0  0  0  0  0
    4.2868    0.0000    0.0000 C   0  0  0  0  0  0  0  0  0  0  0  0
    5.0013    0.4125    0.0000 C   0  0  0  0  0  0  0  0  0  0  0  0
    5.7158    0.0000    0.0000 C   0  0  0  0  0  0  0  0  0  0  0  0
    6.4302    0.4125    0.0000 C   0  0  0  0  0  0  0  0  0  0  0  0
    5.7158   -0.8250    0.0000 C   0  0  0  0  0  0  0  0  0  0  0  0
    5.0013   -1.2375    0.0000 C   0  0  0  0  0  0  0  0  0  0  0  0
    5.0013   -2.0625    0.0000 N   0  0  0  0  0  0  0  0  0  0  0  0
    4.2868   -2.4750    0.0000 C   0  0  0  0  0  0  0  0  0  0  0  0
    4.2868   -3.3000    0.0000 O   0  0  0  0  0  0  0  0  0  0  0  0
  1  2  1  0  0  0  0
  2  3  1  0  0  0  0
  3  4  2  0  0  0  0
  3  5  2  0  0  0  0
  3  6  1  0  0  0  0
  6  7  1  0  0  0  0
  7  8  1  0  0  0  0
  8  9  1  0  0  0  0
  9 10  1  0  0  0  0
 10 11  2  0  0  0  0
 11 12  1  0  0  0  0
  8 12  2  0  0  0  0
  6 13  1  0  0  0  0
 13 14  1  0  0  0  0
 14 15  1  0  0  0  0
 15 16  2  0  0  0  0
 16 17  1  0  0  0  0
 17 18  2  0  0  0  0
 18 19  1  0  0  0  0
 19 20  1  0  0  0  0
 19 21  2  0  0  0  0
 21 22  1  0  0  0  0
 16 22  1  0  0  0  0
 22 23  2  0  0  0  0
 23 24  1  0  0  0  0
 14 24  2  0  0  0  0
 24 25  1  0  0  0  0
M  END
> <COMPOUND_ID>
MMV676398

$$$$

  Mrv0541 04191616472D          

 23 25  0  0  0  0            999 V2000
   -0.9962   -0.6979    0.0000 F   0  0  0  0  0  0  0  0  0  0  0  0
   -0.1712   -0.6979    0.0000 C   0  0  0  0  0  0  0  0  0  0  0  0
   -0.1712   -1.5229    0.0000 F   0  0  0  0  0  0  0  0  0  0  0  0
   -0.1712    0.1271    0.0000 F   0  0  0  0  0  0  0  0  0  0  0  0
    0.6538   -0.6979    0.0000 C   0  0  0  0  0  0  0  0  0  0  0  0
    1.1387   -0.0305    0.0000 C   0  0  0  0  0  0  0  0  0  0  0  0
    0.8838    0.7541    0.0000 C   0  0  0  0  0  0  0  0  0  0  0  0
    1.4358    1.3672    0.0000 N   0  0  0  0  0  0  0  0  0  0  0  0
    1.1809    2.1518    0.0000 C   0  0  0  0  0  0  0  0  0  0  0  0
    1.7329    2.7649    0.0000 C   0  0  0  0  0  0  0  0  0  0  0  0
    2.5399    2.5934    0.0000 C   0  0  0  0  0  0  0  0  0  0  0  0
    2.7948    1.8088    0.0000 C   0  0  0  0  0  0  0  0  0  0  0  0
    2.2428    1.1957    0.0000 C   0  0  0  0  0  0  0  0  0  0  0  0
    0.0768    0.9256    0.0000 O   0  0  0  0  0  0  0  0  0  0  0  0
    1.9233   -0.2854    0.0000 N   0  0  0  0  0  0  0  0  0  0  0  0
    2.6378    0.1271    0.0000 C   0  0  0  0  0  0  0  0  0  0  0  0
    3.3523   -0.2854    0.0000 C   0  0  0  0  0  0  0  0  0  0  0  0
    3.3523   -1.1104    0.0000 C   0  0  0  0  0  0  0  0  0  0  0  0
    2.6378   -1.5229    0.0000 C   0  0  0  0  0  0  0  0  0  0  0  0
    2.6378   -2.3479    0.0000 O   0  0  0  0  0  0  0  0  0  0  0  0
    3.3523   -2.7604    0.0000 C   0  0  0  0  0  0  0  0  0  0  0  0
    1.9233   -1.1104    0.0000 C   0  0  0  0  0  0  0  0  0  0  0  0
    1.1387   -1.3654    0.0000 N   0  0  0  0  0  0  0  0  0  0  0  0
  1  2  1  0  0  0  0
  2  3  1  0  0  0  0
  2  4  1  0  0  0  0
  2  5  1  0  0  0  0
  5  6  2  0  0  0  0
  6  7  1  0  0  0  0
  7  8  1  0  0  0  0
  8  9  1  0  0  0  0
  9 10  1  0  0  0  0
 10 11  1  0  0  0  0
 11 12  1  0  0  0  0
 12 13  1  0  0  0  0
  8 13  1  0  0  0  0
  7 14  2  0  0  0  0
  6 15  1  0  0  0  0
 15 16  1  0  0  0  0
 16 17  2  0  0  0  0
 17 18  1  0  0  0  0
 18 19  2  0  0  0  0
 19 20  1  0  0  0  0
 20 21  1  0  0  0  0
 15 22  1  0  0  0  0
 19 22  1  0  0  0  0
 22 23  2  0  0  0  0
  5 23  1  0  0  0  0
M  END
> <COMPOUND_ID>
MMV1110498

$$$$

  Mrv0541 04191616472D          

 28 32  0  0  0  0            999 V2000
    3.6824    1.9470    0.0000 C   0  0  0  0  0  0  0  0  0  0  0  0
    3.9373    2.7317    0.0000 N   0  0  0  0  0  0  0  0  0  0  0  0
    3.4524    3.3991    0.0000 N   0  0  0  0  0  0  0  0  0  0  0  0
    3.9373    4.0665    0.0000 C   0  0  0  0  0  0  0  0  0  0  0  0
    4.7220    3.8116    0.0000 C   0  0  0  0  0  0  0  0  0  0  0  0
    5.4364    4.2241    0.0000 C   0  0  0  0  0  0  0  0  0  0  0  0
    6.1509    3.8116    0.0000 N   0  0  0  0  0  0  0  0  0  0  0  0
    6.1509    2.9866    0.0000 C   0  0  0  0  0  0  0  0  0  0  0  0
    6.8654    2.5741    0.0000 N   0  0  0  0  0  0  0  0  0  0  0  0
    6.8654    1.7491    0.0000 C   0  0  0  0  0  0  0  0  0  0  0  0
    7.5798    1.3366    0.0000 C   0  0  0  0  0  0  0  0  0  0  0  0
    7.5798    0.5116    0.0000 C   0  0  0  0  0  0  0  0  0  0  0  0
    8.2473    0.0267    0.0000 C   0  0  0  0  0  0  0  0  0  0  0  0
    7.9923   -0.7579    0.0000 N   0  0  0  0  0  0  0  0  0  0  0  0
    7.1673   -0.7579    0.0000 C   0  0  0  0  0  0  0  0  0  0  0  0
    6.6153   -1.3710    0.0000 C   0  0  0  0  0  0  0  0  0  0  0  0
    5.8083   -1.1995    0.0000 C   0  0  0  0  0  0  0  0  0  0  0  0
    5.5534   -0.4149    0.0000 C   0  0  0  0  0  0  0  0  0  0  0  0
    6.1054    0.1982    0.0000 C   0  0  0  0  0  0  0  0  0  0  0  0
    6.9124    0.0267    0.0000 C   0  0  0  0  0  0  0  0  0  0  0  0
    5.4364    2.5741    0.0000 N   0  0  0  0  0  0  0  0  0  0  0  0
    4.7220    2.9866    0.0000 C   0  0  0  0  0  0  0  0  0  0  0  0
    5.4364    5.0491    0.0000 N   0  0  0  0  0  0  0  0  0  0  0  0
    4.7220    5.4616    0.0000 C   0  0  0  0  0  0  0  0  0  0  0  0
    4.7220    6.2866    0.0000 C   0  0  0  0  0  0  0  0  0  0  0  0
    5.4364    6.6991    0.0000 O   0  0  0  0  0  0  0  0  0  0  0  0
    6.1509    6.2866    0.0000 C   0  0  0  0  0  0  0  0  0  0  0  0
    6.1509    5.4616    0.0000 C   0  0  0  0  0  0  0  0  0  0  0  0
  1  2  1  0  0  0  0
  2  3  1  0  0  0  0
  3  4  2  0  0  0  0
  4  5  1  0  0  0  0
  5  6  2  0  0  0  0
  6  7  1  0  0  0  0
  7  8  2  0  0  0  0
  8  9  1  0  0  0  0
  9 10  1  0  0  0  0
 10 11  1  0  0  0  0
 11 12  1  0  0  0  0
 12 13  2  0  0  0  0
 13 14  1  0  0  0  0
 14 15  1  0  0  0  0
 15 16  2  0  0  0  0
 16 17  1  0  0  0  0
 17 18  2  0  0  0  0
 18 19  1  0  0  0  0
 19 20  2  0  0  0  0
 12 20  1  0  0  0  0
 15 20  1  0  0  0  0
  8 21  1  0  0  0  0
 21 22  2  0  0  0  0
  2 22  1  0  0  0  0
  5 22  1  0  0  0  0
  6 23  1  0  0  0  0
 23 24  1  0  0  0  0
 24 25  1  0  0  0  0
 25 26  1  0  0  0  0
 26 27  1  0  0  0  0
 27 28  1  0  0  0  0
 23 28  1  0  0  0  0
M  END
> <COMPOUND_ID>
MMV676382

$$$$

  Mrv0541 04191616472D          

 25 27  0  0  0  0            999 V2000
   -2.1434   -4.5375    0.0000 C   0  0  0  0  0  0  0  0  0  0  0  0
   -1.4289   -4.9500    0.0000 O   0  0  0  0  0  0  0  0  0  0  0  0
   -0.7145   -4.5375    0.0000 C   0  0  0  0  0  0  0  0  0  0  0  0
    0.0000   -4.9500    0.0000 C   0  0  0  0  0  0  0  0  0  0  0  0
    0.0000   -5.7750    0.0000 C   0  0  0  0  0  0  0  0  0  0  0  0
    0.7145   -4.5375    0.0000 N   0  0  0  0  0  0  0  0  0  0  0  0
    1.4289   -4.9500    0.0000 C   0  0  0  0  0  0  0  0  0  0  0  0
    1.4289   -5.7750    0.0000 O   0  0  0  0  0  0  0  0  0  0  0  0
    2.1434   -4.5375    0.0000 C   0  0  0  0  0  0  0  0  0  0  0  0
    2.8579   -4.9500    0.0000 S   0  0  0  0  0  0  0  0  0  0  0  0
    3.5724   -4.5375    0.0000 C   0  0  0  0  0  0  0  0  0  0  0  0
    3.5724   -3.7125    0.0000 N   0  0  0  0  0  0  0  0  0  0  0  0
    4.2868   -3.3000    0.0000 C   0  0  0  0  0  0  0  0  0  0  0  0
    5.0013   -3.7125    0.0000 N   0  0  0  0  0  0  0  0  0  0  0  0
    5.0013   -4.5375    0.0000 C   0  0  0  0  0  0  0  0  0  0  0  0
    5.6144   -5.0895    0.0000 S   0  0  0  0  0  0  0  0  0  0  0  0
    5.2788   -5.8432    0.0000 C   0  0  0  0  0  0  0  0  0  0  0  0
    4.4584   -5.7570    0.0000 C   0  0  0  0  0  0  0  0  0  0  0  0
    4.2868   -4.9500    0.0000 C   0  0  0  0  0  0  0  0  0  0  0  0
    5.6913   -6.5577    0.0000 C   0  0  0  0  0  0  0  0  0  0  0  0
    6.5163   -6.5577    0.0000 C   0  0  0  0  0  0  0  0  0  0  0  0
    6.9288   -7.2721    0.0000 C   0  0  0  0  0  0  0  0  0  0  0  0
    6.5163   -7.9866    0.0000 C   0  0  0  0  0  0  0  0  0  0  0  0
    5.6913   -7.9866    0.0000 C   0  0  0  0  0  0  0  0  0  0  0  0
    5.2788   -7.2721    0.0000 C   0  0  0  0  0  0  0  0  0  0  0  0
  1  2  1  0  0  0  0
  2  3  1  0  0  0  0
  3  4  1  0  0  0  0
  4  5  1  0  0  0  0
  4  6  1  0  0  0  0
  6  7  1  0  0  0  0
  7  8  2  0  0  0  0
  7  9  1  0  0  0  0
  9 10  1  0  0  0  0
 10 11  1  0  0  0  0
 11 12  1  0  0  0  0
 12 13  2  0  0  0  0
 13 14  1  0  0  0  0
 14 15  2  0  0  0  0
 15 16  1  0  0  0  0
 16 17  1  0  0  0  0
 17 18  2  0  0  0  0
 18 19  1  0  0  0  0
 11 19  2  0  0  0  0
 15 19  1  0  0  0  0
 17 20  1  0  0  0  0
 20 21  2  0  0  0  0
 21 22  1  0  0  0  0
 22 23  2  0  0  0  0
 23 24  1  0  0  0  0
 24 25  2  0  0  0  0
 20 25  1  0  0  0  0
M  END
> <COMPOUND_ID>
MMV676536

$$$$

  Mrv0541 04191616472D          

 28 32  0  0  0  0            999 V2000
    4.7812    6.8854    0.0000 O   0  0  0  0  0  0  0  0  0  0  0  0
    4.0668    7.2979    0.0000 C   0  0  0  0  0  0  0  0  0  0  0  0
    3.3523    6.8854    0.0000 C   0  0  0  0  0  0  0  0  0  0  0  0
    2.6378    7.2979    0.0000 C   0  0  0  0  0  0  0  0  0  0  0  0
    2.6378    8.1229    0.0000 C   0  0  0  0  0  0  0  0  0  0  0  0
    3.3523    8.5354    0.0000 C   0  0  0  0  0  0  0  0  0  0  0  0
    4.0668    8.1229    0.0000 C   0  0  0  0  0  0  0  0  0  0  0  0
    4.7812    6.0604    0.0000 C   0  0  0  0  0  0  0  0  0  0  0  0
    5.4957    5.6479    0.0000 C   0  0  0  0  0  0  0  0  0  0  0  0
    5.4957    4.8229    0.0000 C   0  0  0  0  0  0  0  0  0  0  0  0
    4.7812    4.4104    0.0000 C   0  0  0  0  0  0  0  0  0  0  0  0
    4.0668    4.8229    0.0000 C   0  0  0  0  0  0  0  0  0  0  0  0
    4.0668    5.6479    0.0000 C   0  0  0  0  0  0  0  0  0  0  0  0
    4.7812    3.5854    0.0000 C   0  0  0  0  0  0  0  0  0  0  0  0
    5.4957    3.1729    0.0000 C   0  0  0  0  0  0  0  0  0  0  0  0
    5.4957    2.3479    0.0000 N   0  0  0  0  0  0  0  0  0  0  0  0
    4.7812    1.9354    0.0000 C   0  0  0  0  0  0  0  0  0  0  0  0
    4.0668    2.3479    0.0000 C   0  0  0  0  0  0  0  0  0  0  0  0
    4.0668    3.1729    0.0000 N   0  0  0  0  0  0  0  0  0  0  0  0
    3.3523    1.9354    0.0000 C   0  0  0  0  0  0  0  0  0  0  0  0
    3.3523    1.1104    0.0000 C   0  0  0  0  0  0  0  0  0  0  0  0
    2.6378    0.6979    0.0000 C   0  0  0  0  0  0  0  0  0  0  0  0
    1.9233    1.1104    0.0000 C   0  0  0  0  0  0  0  0  0  0  0  0
    1.1387    0.8555    0.0000 N   0  0  0  0  0  0  0  0  0  0  0  0
    0.6538    1.5229    0.0000 C   0  0  0  0  0  0  0  0  0  0  0  0
    1.1387    2.1904    0.0000 C   0  0  0  0  0  0  0  0  0  0  0  0
    1.9233    1.9354    0.0000 C   0  0  0  0  0  0  0  0  0  0  0  0
    2.6378    2.3479    0.0000 C   0  0  0  0  0  0  0  0  0  0  0  0
  1  2  1  0  0  0  0
  2  3  2  0  0  0  0
  3  4  1  0  0  0  0
  4  5  2  0  0  0  0
  5  6  1  0  0  0  0
  6  7  2  0  0  0  0
  2  7  1  0  0  0  0
  1  8  1  0  0  0  0
  8  9  2  0  0  0  0
  9 10  1  0  0  0  0
 10 11  2  0  0  0  0
 11 12  1  0  0  0  0
 12 13  2  0  0  0  0
  8 13  1  0  0  0  0
 11 14  1  0  0  0  0
 14 15  2  0  0  0  0
 15 16  1  0  0  0  0
 16 17  2  0  0  0  0
 17 18  1  0  0  0  0
 18 19  2  0  0  0  0
 14 19  1  0  0  0  0
 18 20  1  0  0  0  0
 20 21  2  0  0  0  0
 21 22  1  0  0  0  0
 22 23  2  0  0  0  0
 23 24  1  0  0  0  0
 24 25  1  0  0  0  0
 25 26  2  0  0  0  0
 26 27  1  0  0  0  0
 23 27  1  0  0  0  0
 27 28  2  0  0  0  0
 20 28  1  0  0  0  0
M  END
> <COMPOUND_ID>
MMV688178

$$$$

  Mrv0541 04191616472D          

 28 31  0  0  0  0            999 V2000
    0.6710   -5.1170    0.0000 C   0  0  0  0  0  0  0  0  0  0  0  0
    0.1190   -4.5039    0.0000 O   0  0  0  0  0  0  0  0  0  0  0  0
    0.3739   -3.7192    0.0000 C   0  0  0  0  0  0  0  0  0  0  0  0
   -0.1781   -3.1062    0.0000 C   0  0  0  0  0  0  0  0  0  0  0  0
    0.0768   -2.3215    0.0000 C   0  0  0  0  0  0  0  0  0  0  0  0
    0.8838   -2.1500    0.0000 C   0  0  0  0  0  0  0  0  0  0  0  0
    1.4358   -2.7631    0.0000 C   0  0  0  0  0  0  0  0  0  0  0  0
    1.1809   -3.5477    0.0000 C   0  0  0  0  0  0  0  0  0  0  0  0
    1.7329   -4.1608    0.0000 O   0  0  0  0  0  0  0  0  0  0  0  0
    1.4780   -4.9454    0.0000 C   0  0  0  0  0  0  0  0  0  0  0  0
    1.1387   -1.3654    0.0000 C   0  0  0  0  0  0  0  0  0  0  0  0
    0.6538   -0.6979    0.0000 N   0  0  0  0  0  0  0  0  0  0  0  0
    1.1387   -0.0305    0.0000 N   0  0  0  0  0  0  0  0  0  0  0  0
    1.9233   -0.2854    0.0000 C   0  0  0  0  0  0  0  0  0  0  0  0
    2.6378    0.1271    0.0000 C   0  0  0  0  0  0  0  0  0  0  0  0
    3.3523   -0.2854    0.0000 C   0  0  0  0  0  0  0  0  0  0  0  0
    3.3523   -1.1104    0.0000 C   0  0  0  0  0  0  0  0  0  0  0  0
    2.6378   -1.5229    0.0000 C   0  0  0  0  0  0  0  0  0  0  0  0
    1.9233   -1.1104    0.0000 N   0  0  0  0  0  0  0  0  0  0  0  0
    4.0668   -1.5229    0.0000 C   0  0  0  0  0  0  0  0  0  0  0  0
    4.7812   -1.1104    0.0000 C   0  0  0  0  0  0  0  0  0  0  0  0
    5.4957   -1.5229    0.0000 C   0  0  0  0  0  0  0  0  0  0  0  0
    5.4957   -2.3479    0.0000 C   0  0  0  0  0  0  0  0  0  0  0  0
    4.7812   -2.7604    0.0000 C   0  0  0  0  0  0  0  0  0  0  0  0
    4.0668   -2.3479    0.0000 C   0  0  0  0  0  0  0  0  0  0  0  0
    4.7812   -3.5854    0.0000 C   0  0  0  0  0  0  0  0  0  0  0  0
    5.4957   -3.9979    0.0000 C   0  0  0  0  0  0  0  0  0  0  0  0
    4.0668   -3.9979    0.0000 C   0  0  0  0  0  0  0  0  0  0  0  0
  1  2  1  0  0  0  0
  2  3  1  0  0  0  0
  3  4  2  0  0  0  0
  4  5  1  0  0  0  0
  5  6  2  0  0  0  0
  6  7  1  0  0  0  0
  7  8  2  0  0  0  0
  3  8  1  0  0  0  0
  8  9  1  0  0  0  0
  9 10  1  0  0  0  0
  6 11  1  0  0  0  0
 11 12  2  0  0  0  0
 12 13  1  0  0  0  0
 13 14  2  0  0  0  0
 14 15  1  0  0  0  0
 15 16  2  0  0  0  0
 16 17  1  0  0  0  0
 17 18  2  0  0  0  0
 18 19  1  0  0  0  0
 11 19  1  0  0  0  0
 14 19  1  0  0  0  0
 17 20  1  0  0  0  0
 20 21  2  0  0  0  0
 21 22  1  0  0  0  0
 22 23  2  0  0  0  0
 23 24  1  0  0  0  0
 24 25  2  0  0  0  0
 20 25  1  0  0  0  0
 24 26  1  0  0  0  0
 26 27  1  0  0  0  0
 26 28  1  0  0  0  0
M  END
> <COMPOUND_ID>
MMV688313

$$$$

  Mrv0541 04191616472D          

 27 30  0  0  0  0            999 V2000
    0.6710   -5.1170    0.0000 C   0  0  0  0  0  0  0  0  0  0  0  0
    0.1190   -4.5039    0.0000 O   0  0  0  0  0  0  0  0  0  0  0  0
    0.3739   -3.7192    0.0000 C   0  0  0  0  0  0  0  0  0  0  0  0
   -0.1781   -3.1062    0.0000 C   0  0  0  0  0  0  0  0  0  0  0  0
    0.0768   -2.3215    0.0000 C   0  0  0  0  0  0  0  0  0  0  0  0
    0.8838   -2.1500    0.0000 C   0  0  0  0  0  0  0  0  0  0  0  0
    1.4358   -2.7631    0.0000 C   0  0  0  0  0  0  0  0  0  0  0  0
    1.1809   -3.5477    0.0000 C   0  0  0  0  0  0  0  0  0  0  0  0
    1.1387   -1.3654    0.0000 C   0  0  0  0  0  0  0  0  0  0  0  0
    0.6538   -0.6979    0.0000 C   0  0  0  0  0  0  0  0  0  0  0  0
    1.1387   -0.0305    0.0000 N   0  0  0  0  0  0  0  0  0  0  0  0
    1.9233   -0.2854    0.0000 C   0  0  0  0  0  0  0  0  0  0  0  0
    2.6378    0.1271    0.0000 C   0  0  0  0  0  0  0  0  0  0  0  0
    3.3523   -0.2854    0.0000 N   0  0  0  0  0  0  0  0  0  0  0  0
    3.3523   -1.1104    0.0000 C   0  0  0  0  0  0  0  0  0  0  0  0
    2.6378   -1.5229    0.0000 C   0  0  0  0  0  0  0  0  0  0  0  0
    1.9233   -1.1104    0.0000 N   0  0  0  0  0  0  0  0  0  0  0  0
    4.0668   -1.5229    0.0000 C   0  0  0  0  0  0  0  0  0  0  0  0
    4.7812   -1.1104    0.0000 C   0  0  0  0  0  0  0  0  0  0  0  0
    5.4957   -1.5229    0.0000 C   0  0  0  0  0  0  0  0  0  0  0  0
    5.4957   -2.3479    0.0000 C   0  0  0  0  0  0  0  0  0  0  0  0
    4.7812   -2.7604    0.0000 C   0  0  0  0  0  0  0  0  0  0  0  0
    4.7812   -3.5854    0.0000 O   0  0  0  0  0  0  0  0  0  0  0  0
    4.0668   -3.9979    0.0000 C   0  0  0  0  0  0  0  0  0  0  0  0
    4.0668   -4.8229    0.0000 C   0  0  0  0  0  0  0  0  0  0  0  0
    3.3523   -3.5854    0.0000 C   0  0  0  0  0  0  0  0  0  0  0  0
    4.0668   -2.3479    0.0000 C   0  0  0  0  0  0  0  0  0  0  0  0
  1  2  1  0  0  0  0
  2  3  1  0  0  0  0
  3  4  2  0  0  0  0
  4  5  1  0  0  0  0
  5  6  2  0  0  0  0
  6  7  1  0  0  0  0
  7  8  2  0  0  0  0
  3  8  1  0  0  0  0
  6  9  1  0  0  0  0
  9 10  2  0  0  0  0
 10 11  1  0  0  0  0
 11 12  2  0  0  0  0
 12 13  1  0  0  0  0
 13 14  2  0  0  0  0
 14 15  1  0  0  0  0
 15 16  2  0  0  0  0
 16 17  1  0  0  0  0
  9 17  1  0  0  0  0
 12 17  1  0  0  0  0
 15 18  1  0  0  0  0
 18 19  2  0  0  0  0
 19 20  1  0  0  0  0
 20 21  2  0  0  0  0
 21 22  1  0  0  0  0
 22 23  1  0  0  0  0
 23 24  1  0  0  0  0
 24 25  1  0  0  0  0
 24 26  1  0  0  0  0
 22 27  2  0  0  0  0
 18 27  1  0  0  0  0
M  END
> <COMPOUND_ID>
MMV688270

$$$$

  Mrv0541 04191616472D          

 27 31  0  0  0  0            999 V2000
   -1.0792   -2.9890    0.0000 C   0  0  0  0  0  0  0  0  0  0  0  0
   -1.2508   -2.1820    0.0000 C   0  0  0  0  0  0  0  0  0  0  0  0
   -0.5363   -1.7695    0.0000 C   0  0  0  0  0  0  0  0  0  0  0  0
    0.0768   -2.3215    0.0000 N   0  0  0  0  0  0  0  0  0  0  0  0
   -0.2587   -3.0752    0.0000 C   0  0  0  0  0  0  0  0  0  0  0  0
    0.8838   -2.1500    0.0000 C   0  0  0  0  0  0  0  0  0  0  0  0
    1.4358   -2.7631    0.0000 C   0  0  0  0  0  0  0  0  0  0  0  0
    1.1809   -3.5477    0.0000 C   0  0  0  0  0  0  0  0  0  0  0  0
    1.7329   -4.1608    0.0000 C   0  0  0  0  0  0  0  0  0  0  0  0
    2.5399   -3.9893    0.0000 C   0  0  0  0  0  0  0  0  0  0  0  0
    2.7948   -3.2047    0.0000 C   0  0  0  0  0  0  0  0  0  0  0  0
    2.2428   -2.5916    0.0000 N   0  0  0  0  0  0  0  0  0  0  0  0
    1.1387   -1.3654    0.0000 C   0  0  0  0  0  0  0  0  0  0  0  0
    0.6538   -0.6979    0.0000 C   0  0  0  0  0  0  0  0  0  0  0  0
    1.1387   -0.0305    0.0000 N   0  0  0  0  0  0  0  0  0  0  0  0
    1.9233   -0.2854    0.0000 C   0  0  0  0  0  0  0  0  0  0  0  0
    2.6378    0.1271    0.0000 C   0  0  0  0  0  0  0  0  0  0  0  0
    3.3523   -0.2854    0.0000 C   0  0  0  0  0  0  0  0  0  0  0  0
    3.3523   -1.1104    0.0000 C   0  0  0  0  0  0  0  0  0  0  0  0
    2.6378   -1.5229    0.0000 C   0  0  0  0  0  0  0  0  0  0  0  0
    1.9233   -1.1104    0.0000 C   0  0  0  0  0  0  0  0  0  0  0  0
   -0.1712   -0.6979    0.0000 C   0  0  0  0  0  0  0  0  0  0  0  0
   -0.5837   -1.4124    0.0000 C   0  0  0  0  0  0  0  0  0  0  0  0
   -1.4087   -1.4124    0.0000 C   0  0  0  0  0  0  0  0  0  0  0  0
   -1.8212   -0.6979    0.0000 C   0  0  0  0  0  0  0  0  0  0  0  0
   -1.4087    0.0165    0.0000 C   0  0  0  0  0  0  0  0  0  0  0  0
   -0.5837    0.0165    0.0000 C   0  0  0  0  0  0  0  0  0  0  0  0
  1  2  1  0  0  0  0
  2  3  1  0  0  0  0
  3  4  1  0  0  0  0
  4  5  1  0  0  0  0
  1  5  1  0  0  0  0
  4  6  1  0  0  0  0
  6  7  1  0  0  0  0
  7  8  2  0  0  0  0
  8  9  1  0  0  0  0
  9 10  2  0  0  0  0
 10 11  1  0  0  0  0
 11 12  2  0  0  0  0
  7 12  1  0  0  0  0
  6 13  1  0  0  0  0
 13 14  2  0  0  0  0
 14 15  1  0  0  0  0
 15 16  1  0  0  0  0
 16 17  2  0  0  0  0
 17 18  1  0  0  0  0
 18 19  2  0  0  0  0
 19 20  1  0  0  0  0
 20 21  2  0  0  0  0
 13 21  1  0  0  0  0
 16 21  1  0  0  0  0
 14 22  1  0  0  0  0
 22 23  2  0  0  0  0
 23 24  1  0  0  0  0
 24 25  2  0  0  0  0
 25 26  1  0  0  0  0
 26 27  2  0  0  0  0
 22 27  1  0  0  0  0
M  END
> <COMPOUND_ID>
MMV688762

$$$$

  Mrv0541 04191616472D          

 23 25  0  0  0  0            999 V2000
    5.0580   -1.0192    0.0000 C   0  0  0  0  0  0  0  0  0  0  0  0
    4.4449   -0.4672    0.0000 C   0  0  0  0  0  0  0  0  0  0  0  0
    4.6164    0.3398    0.0000 C   0  0  0  0  0  0  0  0  0  0  0  0
    4.0033    0.8918    0.0000 C   0  0  0  0  0  0  0  0  0  0  0  0
    3.2187    0.6369    0.0000 C   0  0  0  0  0  0  0  0  0  0  0  0
    3.0472   -0.1701    0.0000 C   0  0  0  0  0  0  0  0  0  0  0  0
    3.6603   -0.7221    0.0000 C   0  0  0  0  0  0  0  0  0  0  0  0
    3.4888   -1.5291    0.0000 C   0  0  0  0  0  0  0  0  0  0  0  0
    4.1019   -2.0811    0.0000 O   0  0  0  0  0  0  0  0  0  0  0  0
    2.7041   -1.7840    0.0000 N   0  0  0  0  0  0  0  0  0  0  0  0
    2.4492   -2.5687    0.0000 N   0  0  0  0  0  0  0  0  0  0  0  0
    1.6242   -2.5687    0.0000 C   0  0  0  0  0  0  0  0  0  0  0  0
    1.1393   -3.2361    0.0000 N   0  0  0  0  0  0  0  0  0  0  0  0
    0.3188   -3.1499    0.0000 C   0  0  0  0  0  0  0  0  0  0  0  0
   -0.1661   -3.8173    0.0000 C   0  0  0  0  0  0  0  0  0  0  0  0
   -0.9866   -3.7311    0.0000 C   0  0  0  0  0  0  0  0  0  0  0  0
   -1.3222   -2.9774    0.0000 C   0  0  0  0  0  0  0  0  0  0  0  0
   -0.8372   -2.3099    0.0000 C   0  0  0  0  0  0  0  0  0  0  0  0
   -0.0168   -2.3962    0.0000 C   0  0  0  0  0  0  0  0  0  0  0  0
    1.3693   -1.7840    0.0000 S   0  0  0  0  0  0  0  0  0  0  0  0
    2.0367   -1.2991    0.0000 C   0  0  0  0  0  0  0  0  0  0  0  0
    1.6317   -0.5804    0.0000 C   0  0  0  0  0  0  0  0  0  0  0  0
    2.4417   -0.5804    0.0000 C   0  0  0  0  0  0  0  0  0  0  0  0
  1  2  1  0  0  0  0
  2  3  2  0  0  0  0
  3  4  1  0  0  0  0
  4  5  2  0  0  0  0
  5  6  1  0  0  0  0
  6  7  2  0  0  0  0
  2  7  1  0  0  0  0
  7  8  1  0  0  0  0
  8  9  2  0  0  0  0
  8 10  1  0  0  0  0
 10 11  1  0  0  0  0
 11 12  2  0  0  0  0
 12 13  1  0  0  0  0
 13 14  1  0  0  0  0
 14 15  2  0  0  0  0
 15 16  1  0  0  0  0
 16 17  2  0  0  0  0
 17 18  1  0  0  0  0
 18 19  2  0  0  0  0
 14 19  1  0  0  0  0
 12 20  1  0  0  0  0
 20 21  1  0  0  0  0
 10 21  1  0  0  0  0
 21 22  1  0  0  0  0
 21 23  1  0  0  0  0
M  END
> <COMPOUND_ID>
MMV688771

$$$$

  Mrv0541 04191616472D          

 23 26  0  0  0  0            999 V2000
   -2.3441   -2.8361    0.0000 C   0  0  0  0  0  0  0  0  0  0  0  0
   -1.5371   -2.6646    0.0000 N   0  0  0  0  0  0  0  0  0  0  0  0
   -1.2822   -1.8800    0.0000 C   0  0  0  0  0  0  0  0  0  0  0  0
   -0.4752   -1.7084    0.0000 C   0  0  0  0  0  0  0  0  0  0  0  0
    0.0768   -2.3215    0.0000 N   0  0  0  0  0  0  0  0  0  0  0  0
   -0.1781   -3.1062    0.0000 C   0  0  0  0  0  0  0  0  0  0  0  0
   -0.9851   -3.2777    0.0000 C   0  0  0  0  0  0  0  0  0  0  0  0
    0.8838   -2.1500    0.0000 C   0  0  0  0  0  0  0  0  0  0  0  0
    1.4358   -2.7631    0.0000 C   0  0  0  0  0  0  0  0  0  0  0  0
    2.2563   -2.6769    0.0000 C   0  0  0  0  0  0  0  0  0  0  0  0
    2.5919   -3.4305    0.0000 C   0  0  0  0  0  0  0  0  0  0  0  0
    1.9788   -3.9826    0.0000 C   0  0  0  0  0  0  0  0  0  0  0  0
    1.2643   -3.5701    0.0000 S   0  0  0  0  0  0  0  0  0  0  0  0
    1.1387   -1.3654    0.0000 C   0  0  0  0  0  0  0  0  0  0  0  0
    0.6538   -0.6979    0.0000 C   0  0  0  0  0  0  0  0  0  0  0  0
   -0.1712   -0.6979    0.0000 C   0  0  0  0  0  0  0  0  0  0  0  0
    1.1387   -0.0305    0.0000 N   0  0  0  0  0  0  0  0  0  0  0  0
    1.9233   -0.2854    0.0000 C   0  0  0  0  0  0  0  0  0  0  0  0
    2.6378    0.1271    0.0000 C   0  0  0  0  0  0  0  0  0  0  0  0
    3.3523   -0.2854    0.0000 C   0  0  0  0  0  0  0  0  0  0  0  0
    3.3523   -1.1104    0.0000 C   0  0  0  0  0  0  0  0  0  0  0  0
    2.6378   -1.5229    0.0000 C   0  0  0  0  0  0  0  0  0  0  0  0
    1.9233   -1.1104    0.0000 C   0  0  0  0  0  0  0  0  0  0  0  0
  1  2  1  0  0  0  0
  2  3  1  0  0  0  0
  3  4  1  0  0  0  0
  4  5  1  0  0  0  0
  5  6  1  0  0  0  0
  6  7  1  0  0  0  0
  2  7  1  0  0  0  0
  5  8  1  0  0  0  0
  8  9  1  0  0  0  0
  9 10  2  0  0  0  0
 10 11  1  0  0  0  0
 11 12  2  0  0  0  0
 12 13  1  0  0  0  0
  9 13  1  0  0  0  0
  8 14  1  0  0  0  0
 14 15  2  0  0  0  0
 15 16  1  0  0  0  0
 15 17  1  0  0  0  0
 17 18  1  0  0  0  0
 18 19  2  0  0  0  0
 19 20  1  0  0  0  0
 20 21  2  0  0  0  0
 21 22  1  0  0  0  0
 22 23  2  0  0  0  0
 14 23  1  0  0  0  0
 18 23  1  0  0  0  0
M  END
> <COMPOUND_ID>
MMV688768

$$$$

  Mrv0541 04191616472D          

 22 24  0  0  0  0            999 V2000
    2.7512   -2.5366    0.0000 C   0  0  0  0  0  0  0  0  0  0  0  0
    2.0367   -2.9491    0.0000 N   0  0  0  0  0  0  0  0  0  0  0  0
    2.0367   -3.7741    0.0000 C   0  0  0  0  0  0  0  0  0  0  0  0
    2.7041   -4.2590    0.0000 N   0  0  0  0  0  0  0  0  0  0  0  0
    2.4492   -5.0437    0.0000 N   0  0  0  0  0  0  0  0  0  0  0  0
    1.6242   -5.0437    0.0000 C   0  0  0  0  0  0  0  0  0  0  0  0
    1.1393   -5.7111    0.0000 S   0  0  0  0  0  0  0  0  0  0  0  0
    0.3188   -5.6249    0.0000 C   0  0  0  0  0  0  0  0  0  0  0  0
   -0.1661   -6.2923    0.0000 C   0  0  0  0  0  0  0  0  0  0  0  0
    0.1694   -7.0460    0.0000 Cl  0  0  0  0  0  0  0  0  0  0  0  0
   -0.9866   -6.2061    0.0000 C   0  0  0  0  0  0  0  0  0  0  0  0
   -1.4715   -6.8735    0.0000 O   0  0  0  0  0  0  0  0  0  0  0  0
   -1.3222   -5.4524    0.0000 N   0  0  0  0  0  0  0  0  0  0  0  0
   -0.8372   -4.7849    0.0000 N   0  0  0  0  0  0  0  0  0  0  0  0
   -0.0168   -4.8712    0.0000 C   0  0  0  0  0  0  0  0  0  0  0  0
   -2.1426   -5.3661    0.0000 C   0  0  0  0  0  0  0  0  0  0  0  0
   -2.6276   -6.0336    0.0000 C   0  0  0  0  0  0  0  0  0  0  0  0
   -3.4480   -5.9473    0.0000 C   0  0  0  0  0  0  0  0  0  0  0  0
   -3.7836   -5.1937    0.0000 C   0  0  0  0  0  0  0  0  0  0  0  0
   -3.2987   -4.5262    0.0000 C   0  0  0  0  0  0  0  0  0  0  0  0
   -2.4782   -4.6125    0.0000 C   0  0  0  0  0  0  0  0  0  0  0  0
    1.3693   -4.2590    0.0000 S   0  0  0  0  0  0  0  0  0  0  0  0
  1  2  1  0  0  0  0
  2  3  1  0  0  0  0
  3  4  2  0  0  0  0
  4  5  1  0  0  0  0
  5  6  2  0  0  0  0
  6  7  1  0  0  0  0
  7  8  1  0  0  0  0
  8  9  2  0  0  0  0
  9 10  1  0  0  0  0
  9 11  1  0  0  0  0
 11 12  2  0  0  0  0
 11 13  1  0  0  0  0
 13 14  1  0  0  0  0
 14 15  2  0  0  0  0
  8 15  1  0  0  0  0
 13 16  1  0  0  0  0
 16 17  2  0  0  0  0
 17 18  1  0  0  0  0
 18 19  2  0  0  0  0
 19 20  1  0  0  0  0
 20 21  2  0  0  0  0
 16 21  1  0  0  0  0
  6 22  1  0  0  0  0
  3 22  1  0  0  0  0
M  END
> <COMPOUND_ID>
MMV688763

$$$$

  Mrv0541 04191616472D          

 31 34  0  0  0  0            999 V2000
   -4.7087   -1.4124    0.0000 C   0  0  0  0  0  0  0  0  0  0  0  0
   -3.8837   -1.4124    0.0000 S   0  0  0  0  0  0  0  0  0  0  0  0
   -3.8837   -2.2374    0.0000 O   0  0  0  0  0  0  0  0  0  0  0  0
   -3.8837   -0.5874    0.0000 O   0  0  0  0  0  0  0  0  0  0  0  0
   -3.0587   -1.4124    0.0000 C   0  0  0  0  0  0  0  0  0  0  0  0
   -2.6462   -0.6979    0.0000 C   0  0  0  0  0  0  0  0  0  0  0  0
   -1.8212   -0.6979    0.0000 C   0  0  0  0  0  0  0  0  0  0  0  0
   -1.4087   -1.4124    0.0000 C   0  0  0  0  0  0  0  0  0  0  0  0
   -1.8212   -2.1269    0.0000 C   0  0  0  0  0  0  0  0  0  0  0  0
   -2.6462   -2.1269    0.0000 C   0  0  0  0  0  0  0  0  0  0  0  0
   -3.0587   -2.8414    0.0000 N   0  3  0  0  0  0  0  0  0  0  0  0
   -3.8837   -2.8414    0.0000 O   0  0  0  0  0  0  0  0  0  0  0  0
   -2.6462   -3.5558    0.0000 O   0  5  0  0  0  0  0  0  0  0  0  0
   -0.5837   -1.4124    0.0000 C   0  0  0  0  0  0  0  0  0  0  0  0
   -0.1712   -2.1269    0.0000 O   0  0  0  0  0  0  0  0  0  0  0  0
   -0.1712   -0.6979    0.0000 N   0  0  0  0  0  0  0  0  0  0  0  0
   -0.5837    0.0165    0.0000 C   0  0  0  0  0  0  0  0  0  0  0  0
   -0.1712    0.7310    0.0000 C   0  0  0  0  0  0  0  0  0  0  0  0
   -0.5068    1.4847    0.0000 C   0  0  0  0  0  0  0  0  0  0  0  0
    0.1063    2.0367    0.0000 C   0  0  0  0  0  0  0  0  0  0  0  0
    0.8208    1.6242    0.0000 C   0  0  0  0  0  0  0  0  0  0  0  0
    0.6493    0.8172    0.0000 O   0  0  0  0  0  0  0  0  0  0  0  0
    0.6538   -0.6979    0.0000 C   0  0  0  0  0  0  0  0  0  0  0  0
    1.1387   -0.0305    0.0000 N   0  0  0  0  0  0  0  0  0  0  0  0
    1.9233   -0.2854    0.0000 C   0  0  0  0  0  0  0  0  0  0  0  0
    2.6378    0.1271    0.0000 C   0  0  0  0  0  0  0  0  0  0  0  0
    3.3523   -0.2854    0.0000 C   0  0  0  0  0  0  0  0  0  0  0  0
    3.3523   -1.1104    0.0000 C   0  0  0  0  0  0  0  0  0  0  0  0
    2.6378   -1.5229    0.0000 C   0  0  0  0  0  0  0  0  0  0  0  0
    1.9233   -1.1104    0.0000 C   0  0  0  0  0  0  0  0  0  0  0  0
    1.1387   -1.3654    0.0000 S   0  0  0  0  0  0  0  0  0  0  0  0
  1  2  1  0  0  0  0
  2  3  2  0  0  0  0
  2  4  2  0  0  0  0
  2  5  1  0  0  0  0
  5  6  2  0  0  0  0
  6  7  1  0  0  0  0
  7  8  2  0  0  0  0
  8  9  1  0  0  0  0
  9 10  2  0  0  0  0
  5 10  1  0  0  0  0
 10 11  1  0  0  0  0
 11 12  2  0  0  0  0
 11 13  1  0  0  0  0
  8 14  1  0  0  0  0
 14 15  2  0  0  0  0
 14 16  1  0  0  0  0
 16 17  1  0  0  0  0
 17 18  1  0  0  0  0
 18 19  1  0  0  0  0
 19 20  1  0  0  0  0
 20 21  1  0  0  0  0
 21 22  1  0  0  0  0
 18 22  1  0  0  0  0
 16 23  1  0  0  0  0
 23 24  2  0  0  0  0
 24 25  1  0  0  0  0
 25 26  2  0  0  0  0
 26 27  1  0  0  0  0
 27 28  2  0  0  0  0
 28 29  1  0  0  0  0
 29 30  2  0  0  0  0
 25 30  1  0  0  0  0
 30 31  1  0  0  0  0
 23 31  1  0  0  0  0
M  CHG  2  11   1  13  -1
M  END
> <COMPOUND_ID>
MMV688761

$$$$

  Mrv0541 04191616472D          

 27 29  0  0  0  0            999 V2000
    0.0000   -1.6500    0.0000 C   0  0  0  0  0  0  0  0  0  0  0  0
    0.0000   -2.4750    0.0000 C   0  0  0  0  0  0  0  0  0  0  0  0
    0.6674   -2.9599    0.0000 C   0  0  0  0  0  0  0  0  0  0  0  0
    1.4521   -2.7050    0.0000 S   0  0  0  0  0  0  0  0  0  0  0  0
    1.6236   -1.8980    0.0000 C   0  0  0  0  0  0  0  0  0  0  0  0
    1.0105   -1.3460    0.0000 N   0  0  0  0  0  0  0  0  0  0  0  0
    1.1820   -0.5390    0.0000 C   0  0  0  0  0  0  0  0  0  0  0  0
    1.9666   -0.2841    0.0000 C   0  0  0  0  0  0  0  0  0  0  0  0
    2.5797   -0.8361    0.0000 C   0  0  0  0  0  0  0  0  0  0  0  0
    2.4082   -1.6431    0.0000 N   0  0  0  0  0  0  0  0  0  0  0  0
    0.4125   -3.7445    0.0000 C   0  0  0  0  0  0  0  0  0  0  0  0
    0.8974   -4.4120    0.0000 C   0  0  0  0  0  0  0  0  0  0  0  0
   -0.6674   -2.9599    0.0000 N   0  0  0  0  0  0  0  0  0  0  0  0
   -0.4125   -3.7445    0.0000 N   0  0  0  0  0  0  0  0  0  0  0  0
   -0.8974   -4.4120    0.0000 C   0  0  0  0  0  0  0  0  0  0  0  0
   -1.7179   -4.3257    0.0000 N   0  0  0  0  0  0  0  0  0  0  0  0
   -2.2028   -4.9932    0.0000 C   0  0  0  0  0  0  0  0  0  0  0  0
   -1.8673   -5.7469    0.0000 C   0  0  0  0  0  0  0  0  0  0  0  0
   -2.3522   -6.4143    0.0000 C   0  0  0  0  0  0  0  0  0  0  0  0
   -3.1727   -6.3281    0.0000 C   0  0  0  0  0  0  0  0  0  0  0  0
   -3.5082   -5.5744    0.0000 C   0  0  0  0  0  0  0  0  0  0  0  0
   -4.3287   -5.4882    0.0000 C   0  0  0  0  0  0  0  0  0  0  0  0
   -5.1492   -5.4019    0.0000 F   0  0  0  0  0  0  0  0  0  0  0  0
   -4.2425   -4.6677    0.0000 F   0  0  0  0  0  0  0  0  0  0  0  0
   -4.4149   -6.3086    0.0000 F   0  0  0  0  0  0  0  0  0  0  0  0
   -3.0233   -4.9070    0.0000 C   0  0  0  0  0  0  0  0  0  0  0  0
   -0.5619   -5.1657    0.0000 O   0  0  0  0  0  0  0  0  0  0  0  0
  1  2  1  0  0  0  0
  2  3  1  0  0  0  0
  3  4  1  0  0  0  0
  4  5  1  0  0  0  0
  5  6  2  0  0  0  0
  6  7  1  0  0  0  0
  7  8  2  0  0  0  0
  8  9  1  0  0  0  0
  9 10  2  0  0  0  0
  5 10  1  0  0  0  0
  3 11  2  0  0  0  0
 11 12  1  0  0  0  0
  2 13  2  0  0  0  0
 13 14  1  0  0  0  0
 11 14  1  0  0  0  0
 14 15  1  0  0  0  0
 15 16  1  0  0  0  0
 16 17  1  0  0  0  0
 17 18  2  0  0  0  0
 18 19  1  0  0  0  0
 19 20  2  0  0  0  0
 20 21  1  0  0  0  0
 21 22  1  0  0  0  0
 22 23  1  0  0  0  0
 22 24  1  0  0  0  0
 22 25  1  0  0  0  0
 21 26  2  0  0  0  0
 17 26  1  0  0  0  0
 15 27  2  0  0  0  0
M  END
> <COMPOUND_ID>
MMV688552

$$$$

  Mrv0541 04191616472D          

 25 27  0  0  0  0            999 V2000
    1.4289    2.4750    0.0000 C   0  0  0  0  0  0  0  0  0  0  0  0
    0.7145    2.0625    0.0000 O   0  0  0  0  0  0  0  0  0  0  0  0
    0.7145    1.2375    0.0000 C   0  0  0  0  0  0  0  0  0  0  0  0
    0.0000    0.8250    0.0000 C   0  0  0  0  0  0  0  0  0  0  0  0
    0.0000   -0.0000    0.0000 C   0  0  0  0  0  0  0  0  0  0  0  0
    0.7145   -0.4125    0.0000 C   0  0  0  0  0  0  0  0  0  0  0  0
    1.4289   -0.0000    0.0000 C   0  0  0  0  0  0  0  0  0  0  0  0
    2.1434   -0.4125    0.0000 O   0  0  0  0  0  0  0  0  0  0  0  0
    1.4289    0.8250    0.0000 C   0  0  0  0  0  0  0  0  0  0  0  0
    0.7145   -1.2375    0.0000 C   0  0  0  0  0  0  0  0  0  0  0  0
    1.3819   -1.7224    0.0000 O   0  0  0  0  0  0  0  0  0  0  0  0
    1.1270   -2.5070    0.0000 N   0  0  0  0  0  0  0  0  0  0  0  0
    0.3020   -2.5070    0.0000 C   0  0  0  0  0  0  0  0  0  0  0  0
    0.0470   -1.7224    0.0000 C   0  0  0  0  0  0  0  0  0  0  0  0
   -0.7376   -1.4675    0.0000 C   0  0  0  0  0  0  0  0  0  0  0  0
   -1.3507   -2.0195    0.0000 C   0  0  0  0  0  0  0  0  0  0  0  0
   -2.1353   -1.7646    0.0000 C   0  0  0  0  0  0  0  0  0  0  0  0
   -2.3068   -0.9576    0.0000 C   0  0  0  0  0  0  0  0  0  0  0  0
   -3.0915   -0.7027    0.0000 Cl  0  0  0  0  0  0  0  0  0  0  0  0
   -1.6937   -0.4056    0.0000 C   0  0  0  0  0  0  0  0  0  0  0  0
   -0.9091   -0.6605    0.0000 C   0  0  0  0  0  0  0  0  0  0  0  0
   -0.1830   -3.1745    0.0000 C   0  0  0  0  0  0  0  0  0  0  0  0
   -0.6679   -3.8419    0.0000 F   0  0  0  0  0  0  0  0  0  0  0  0
   -0.8504   -2.6896    0.0000 F   0  0  0  0  0  0  0  0  0  0  0  0
    0.4845   -3.6594    0.0000 F   0  0  0  0  0  0  0  0  0  0  0  0
  1  2  1  0  0  0  0
  2  3  1  0  0  0  0
  3  4  2  0  0  0  0
  4  5  1  0  0  0  0
  5  6  2  0  0  0  0
  6  7  1  0  0  0  0
  7  8  1  0  0  0  0
  7  9  2  0  0  0  0
  3  9  1  0  0  0  0
  6 10  1  0  0  0  0
 10 11  1  0  0  0  0
 11 12  1  0  0  0  0
 12 13  2  0  0  0  0
 13 14  1  0  0  0  0
 10 14  2  0  0  0  0
 14 15  1  0  0  0  0
 15 16  2  0  0  0  0
 16 17  1  0  0  0  0
 17 18  2  0  0  0  0
 18 19  1  0  0  0  0
 18 20  1  0  0  0  0
 20 21  2  0  0  0  0
 15 21  1  0  0  0  0
 13 22  1  0  0  0  0
 22 23  1  0  0  0  0
 22 24  1  0  0  0  0
 22 25  1  0  0  0  0
M  END
> <COMPOUND_ID>
MMV688766

$$$$

  Mrv0541 04191616472D          

 25 26  0  0  0  0            999 V2000
   -2.8579   -1.6500    0.0000 C   0  0  0  0  0  0  0  0  0  0  0  0
   -2.1434   -1.2375    0.0000 C   0  0  0  0  0  0  0  0  0  0  0  0
   -2.1434   -0.4125    0.0000 C   0  0  0  0  0  0  0  0  0  0  0  0
   -1.4289   -1.6500    0.0000 C   0  0  0  0  0  0  0  0  0  0  0  0
   -0.7145   -1.2375    0.0000 C   0  0  0  0  0  0  0  0  0  0  0  0
    0.0000   -1.6500    0.0000 C   0  0  0  0  0  0  0  0  0  0  0  0
    0.0000   -2.4750    0.0000 C   0  0  0  0  0  0  0  0  0  0  0  0
    0.7145   -2.8875    0.0000 N   0  0  0  0  0  0  0  0  0  0  0  0
    1.4289   -2.4750    0.0000 C   0  0  0  0  0  0  0  0  0  0  0  0
    1.4289   -1.6500    0.0000 O   0  0  0  0  0  0  0  0  0  0  0  0
    2.1434   -2.8875    0.0000 C   0  0  0  0  0  0  0  0  0  0  0  0
    2.8579   -2.4750    0.0000 O   0  0  0  0  0  0  0  0  0  0  0  0
    3.5724   -2.8875    0.0000 C   0  0  0  0  0  0  0  0  0  0  0  0
    4.2868   -2.4750    0.0000 C   0  0  0  0  0  0  0  0  0  0  0  0
    5.0013   -2.8875    0.0000 C   0  0  0  0  0  0  0  0  0  0  0  0
    5.0013   -3.7125    0.0000 C   0  0  0  0  0  0  0  0  0  0  0  0
    5.7158   -4.1250    0.0000 C   0  0  0  0  0  0  0  0  0  0  0  0
    6.4302   -4.5375    0.0000 N   0  0  0  0  0  0  0  0  0  0  0  0
    4.2868   -4.1250    0.0000 C   0  0  0  0  0  0  0  0  0  0  0  0
    4.2868   -4.9500    0.0000 O   0  0  0  0  0  0  0  0  0  0  0  0
    3.5724   -3.7125    0.0000 N   0  0  0  0  0  0  0  0  0  0  0  0
    2.8579   -4.1250    0.0000 C   0  0  0  0  0  0  0  0  0  0  0  0
    5.7158   -2.4750    0.0000 C   0  0  0  0  0  0  0  0  0  0  0  0
   -0.7145   -2.8875    0.0000 C   0  0  0  0  0  0  0  0  0  0  0  0
   -1.4289   -2.4750    0.0000 C   0  0  0  0  0  0  0  0  0  0  0  0
  1  2  1  0  0  0  0
  2  3  1  0  0  0  0
  2  4  1  0  0  0  0
  4  5  2  0  0  0  0
  5  6  1  0  0  0  0
  6  7  2  0  0  0  0
  7  8  1  0  0  0  0
  8  9  1  0  0  0  0
  9 10  2  0  0  0  0
  9 11  1  0  0  0  0
 11 12  1  0  0  0  0
 12 13  1  0  0  0  0
 13 14  2  0  0  0  0
 14 15  1  0  0  0  0
 15 16  2  0  0  0  0
 16 17  1  0  0  0  0
 17 18  3  0  0  0  0
 16 19  1  0  0  0  0
 19 20  2  0  0  0  0
 19 21  1  0  0  0  0
 13 21  1  0  0  0  0
 21 22  1  0  0  0  0
 15 23  1  0  0  0  0
  7 24  1  0  0  0  0
 24 25  2  0  0  0  0
  4 25  1  0  0  0  0
M  END
> <COMPOUND_ID>
MMV1198433

$$$$

  Mrv0541 04191616472D          

 24 26  0  0  1  0            999 V2000
   -0.7465    1.5526    0.0000 Cl  0  0  0  0  0  0  0  0  0  0  0  0
   -0.0320    1.1401    0.0000 C   0  0  0  0  0  0  0  0  0  0  0  0
    0.6825    1.5526    0.0000 C   0  0  0  0  0  0  0  0  0  0  0  0
    1.3970    1.1401    0.0000 C   0  0  0  0  0  0  0  0  0  0  0  0
    1.3970    0.3151    0.0000 C   0  0  0  0  0  0  0  0  0  0  0  0
    2.1114   -0.0974    0.0000 C   0  0  1  0  0  0  0  0  0  0  0  0
    1.6989   -0.8119    0.0000 C   0  0  0  0  0  0  0  0  0  0  0  0
    2.5239    0.6171    0.0000 C   0  0  0  0  0  0  0  0  0  0  0  0
    2.1114    1.3315    0.0000 C   0  0  0  0  0  0  0  0  0  0  0  0
    2.5239    2.0460    0.0000 C   0  0  0  0  0  0  0  0  0  0  0  0
    3.3489    2.0460    0.0000 C   0  0  0  0  0  0  0  0  0  0  0  0
    3.7614    1.3315    0.0000 C   0  0  0  0  0  0  0  0  0  0  0  0
    3.3489    0.6171    0.0000 C   0  0  0  0  0  0  0  0  0  0  0  0
    2.8259   -0.5099    0.0000 O   0  0  0  0  0  0  0  0  0  0  0  0
    2.8259   -1.3349    0.0000 C   0  0  0  0  0  0  0  0  0  0  0  0
    3.5404   -1.7474    0.0000 C   0  0  0  0  0  0  0  0  0  0  0  0
    3.5404   -2.5724    0.0000 C   0  0  0  0  0  0  0  0  0  0  0  0
    4.2078   -3.0573    0.0000 N   0  0  0  0  0  0  0  0  0  0  0  0
    4.9924   -2.8024    0.0000 C   0  0  0  0  0  0  0  0  0  0  0  0
    3.9529   -3.8420    0.0000 C   0  0  0  0  0  0  0  0  0  0  0  0
    3.1279   -3.8420    0.0000 C   0  0  0  0  0  0  0  0  0  0  0  0
    2.8729   -3.0573    0.0000 C   0  0  0  0  0  0  0  0  0  0  0  0
    0.6825   -0.0974    0.0000 C   0  0  0  0  0  0  0  0  0  0  0  0
   -0.0320    0.3151    0.0000 C   0  0  0  0  0  0  0  0  0  0  0  0
  1  2  1  0  0  0  0
  2  3  2  0  0  0  0
  3  4  1  0  0  0  0
  4  5  2  0  0  0  0
  5  6  1  0  0  0  0
  6  7  1  6  0  0  0
  6  8  1  0  0  0  0
  8  9  2  0  0  0  0
  9 10  1  0  0  0  0
 10 11  2  0  0  0  0
 11 12  1  0  0  0  0
 12 13  2  0  0  0  0
  8 13  1  0  0  0  0
  6 14  1  1  0  0  0
 14 15  1  0  0  0  0
 15 16  1  0  0  0  0
 16 17  1  0  0  0  0
 17 18  1  0  0  0  0
 18 19  1  0  0  0  0
 18 20  1  0  0  0  0
 20 21  1  0  0  0  0
 21 22  1  0  0  0  0
 17 22  1  0  0  0  0
  5 23  1  0  0  0  0
 23 24  2  0  0  0  0
  2 24  1  0  0  0  0
M  END
> <COMPOUND_ID>
MMV637229

$$$$

  Mrv0541 04191616472D          

 11 12  0  0  0  0            999 V2000
    2.7845    0.6979    0.0000 Cl  0  0  0  0  0  0  0  0  0  0  0  0
    2.0701    1.1104    0.0000 C   0  0  0  0  0  0  0  0  0  0  0  0
    1.3556    0.6979    0.0000 C   0  0  0  0  0  0  0  0  0  0  0  0
    0.6411    1.1104    0.0000 C   0  0  0  0  0  0  0  0  0  0  0  0
   -0.1435    0.8555    0.0000 N   0  0  0  0  0  0  0  0  0  0  0  0
   -0.6284    1.5229    0.0000 C   0  0  0  0  0  0  0  0  0  0  0  0
   -1.4534    1.5229    0.0000 N   0  0  0  0  0  0  0  0  0  0  0  0
   -0.1435    2.1904    0.0000 O   0  0  0  0  0  0  0  0  0  0  0  0
    0.6411    1.9354    0.0000 C   0  0  0  0  0  0  0  0  0  0  0  0
    1.3556    2.3479    0.0000 C   0  0  0  0  0  0  0  0  0  0  0  0
    2.0701    1.9354    0.0000 C   0  0  0  0  0  0  0  0  0  0  0  0
  1  2  1  0  0  0  0
  2  3  2  0  0  0  0
  3  4  1  0  0  0  0
  4  5  1  0  0  0  0
  5  6  2  0  0  0  0
  6  7  1  0  0  0  0
  6  8  1  0  0  0  0
  4  9  2  0  0  0  0
  8  9  1  0  0  0  0
  9 10  1  0  0  0  0
 10 11  2  0  0  0  0
  2 11  1  0  0  0  0
M  END
> <COMPOUND_ID>
MMV003270

$$$$

  Mrv0541 04191616472D          

 24 26  0  0  0  0            999 V2000
    3.5724   -1.2375    0.0000 C   0  0  0  0  0  0  0  0  0  0  0  0
    4.2868   -1.6500    0.0000 C   0  0  0  0  0  0  0  0  0  0  0  0
    5.0013   -1.2375    0.0000 O   0  0  0  0  0  0  0  0  0  0  0  0
    4.2868   -2.4750    0.0000 N   0  0  0  0  0  0  0  0  0  0  0  0
    5.0013   -2.8875    0.0000 C   0  0  0  0  0  0  0  0  0  0  0  0
    5.0013   -3.7125    0.0000 C   0  0  0  0  0  0  0  0  0  0  0  0
    4.2868   -4.1250    0.0000 N   0  0  0  0  0  0  0  0  0  0  0  0
    3.5724   -3.7125    0.0000 C   0  0  0  0  0  0  0  0  0  0  0  0
    3.5724   -2.8875    0.0000 C   0  0  0  0  0  0  0  0  0  0  0  0
    4.2868   -4.9500    0.0000 C   0  0  0  0  0  0  0  0  0  0  0  0
    5.0013   -5.3625    0.0000 C   0  0  0  0  0  0  0  0  0  0  0  0
    5.0013   -6.1875    0.0000 C   0  0  0  0  0  0  0  0  0  0  0  0
    4.2868   -6.6000    0.0000 C   0  0  0  0  0  0  0  0  0  0  0  0
    4.2868   -7.4250    0.0000 O   0  0  0  0  0  0  0  0  0  0  0  0
    3.5724   -7.8375    0.0000 C   0  0  0  0  0  0  0  0  0  0  0  0
    3.5724   -8.6625    0.0000 C   0  0  0  0  0  0  0  0  0  0  0  0
    2.8579   -9.0750    0.0000 C   0  0  0  0  0  0  0  0  0  0  0  0
    2.1434   -8.6625    0.0000 C   0  0  0  0  0  0  0  0  0  0  0  0
    1.4289   -9.0750    0.0000 Cl  0  0  0  0  0  0  0  0  0  0  0  0
    2.1434   -7.8375    0.0000 C   0  0  0  0  0  0  0  0  0  0  0  0
    2.8579   -7.4250    0.0000 C   0  0  0  0  0  0  0  0  0  0  0  0
    2.8579   -6.6000    0.0000 O   0  0  0  0  0  0  0  0  0  0  0  0
    3.5724   -6.1875    0.0000 C   0  0  0  0  0  0  0  0  0  0  0  0
    3.5724   -5.3625    0.0000 C   0  0  0  0  0  0  0  0  0  0  0  0
  1  2  1  0  0  0  0
  2  3  2  0  0  0  0
  2  4  1  0  0  0  0
  4  5  1  0  0  0  0
  5  6  1  0  0  0  0
  6  7  1  0  0  0  0
  7  8  1  0  0  0  0
  8  9  1  0  0  0  0
  4  9  1  0  0  0  0
  7 10  1  0  0  0  0
 10 11  2  0  0  0  0
 11 12  1  0  0  0  0
 12 13  2  0  0  0  0
 13 14  1  0  0  0  0
 14 15  1  0  0  0  0
 15 16  2  0  0  0  0
 16 17  1  0  0  0  0
 17 18  2  0  0  0  0
 18 19  1  0  0  0  0
 18 20  1  0  0  0  0
 20 21  2  0  0  0  0
 15 21  1  0  0  0  0
 21 22  1  0  0  0  0
 13 23  1  0  0  0  0
 23 24  2  0  0  0  0
 10 24  1  0  0  0  0
M  END
> <COMPOUND_ID>
MMV688330

$$$$

  Mrv0541 04191616472D          

 22 25  0  0  0  0            999 V2000
   -0.3924   -2.3162    0.0000 N   0  0  0  0  0  0  0  0  0  0  0  0
    0.4146   -2.1447    0.0000 C   0  0  0  0  0  0  0  0  0  0  0  0
    0.6695   -1.3601    0.0000 N   0  0  0  0  0  0  0  0  0  0  0  0
    1.4765   -1.1885    0.0000 C   0  0  0  0  0  0  0  0  0  0  0  0
    1.7314   -0.4039    0.0000 N   0  0  0  0  0  0  0  0  0  0  0  0
    2.0285   -1.8016    0.0000 C   0  0  0  0  0  0  0  0  0  0  0  0
    2.8535   -1.8016    0.0000 C   0  0  0  0  0  0  0  0  0  0  0  0
    3.4056   -1.1885    0.0000 C   0  0  0  0  0  0  0  0  0  0  0  0
    4.2125   -1.3601    0.0000 C   0  0  0  0  0  0  0  0  0  0  0  0
    4.4675   -2.1447    0.0000 N   0  0  0  0  0  0  0  0  0  0  0  0
    5.2744   -2.3162    0.0000 C   0  0  0  0  0  0  0  0  0  0  0  0
    5.5294   -3.1008    0.0000 C   0  0  0  0  0  0  0  0  0  0  0  0
    6.3364   -3.2723    0.0000 C   0  0  0  0  0  0  0  0  0  0  0  0
    6.5913   -4.0570    0.0000 C   0  0  0  0  0  0  0  0  0  0  0  0
    6.0393   -4.6701    0.0000 C   0  0  0  0  0  0  0  0  0  0  0  0
    5.2323   -4.4985    0.0000 C   0  0  0  0  0  0  0  0  0  0  0  0
    4.9773   -3.7139    0.0000 C   0  0  0  0  0  0  0  0  0  0  0  0
    3.9154   -2.7578    0.0000 C   0  0  0  0  0  0  0  0  0  0  0  0
    3.1085   -2.5862    0.0000 C   0  0  0  0  0  0  0  0  0  0  0  0
    2.4410   -3.0712    0.0000 S   0  0  0  0  0  0  0  0  0  0  0  0
    1.7736   -2.5862    0.0000 C   0  0  0  0  0  0  0  0  0  0  0  0
    0.9666   -2.7578    0.0000 N   0  0  0  0  0  0  0  0  0  0  0  0
  1  2  1  0  0  0  0
  2  3  2  0  0  0  0
  3  4  1  0  0  0  0
  4  5  1  0  0  0  0
  4  6  2  0  0  0  0
  6  7  1  0  0  0  0
  7  8  1  0  0  0  0
  8  9  1  0  0  0  0
  9 10  1  0  0  0  0
 10 11  1  0  0  0  0
 11 12  1  0  0  0  0
 12 13  2  0  0  0  0
 13 14  1  0  0  0  0
 14 15  2  0  0  0  0
 15 16  1  0  0  0  0
 16 17  2  0  0  0  0
 12 17  1  0  0  0  0
 10 18  1  0  0  0  0
 18 19  1  0  0  0  0
  7 19  2  0  0  0  0
 19 20  1  0  0  0  0
 20 21  1  0  0  0  0
  6 21  1  0  0  0  0
 21 22  2  0  0  0  0
  2 22  1  0  0  0  0
M  END
> <COMPOUND_ID>
MMV688345

$$$$

  Mrv0541 04191616472D          

 34 38  0  0  0  0            999 V2000
    7.1130   -6.9600    0.0000 C   0  0  0  0  0  0  0  0  0  0  0  0
    6.5610   -6.3469    0.0000 C   0  0  0  0  0  0  0  0  0  0  0  0
    7.1741   -5.7949    0.0000 C   0  0  0  0  0  0  0  0  0  0  0  0
    5.9479   -6.8989    0.0000 C   0  0  0  0  0  0  0  0  0  0  0  0
    6.0089   -5.7338    0.0000 O   0  0  0  0  0  0  0  0  0  0  0  0
    5.2020   -5.9053    0.0000 C   0  0  0  0  0  0  0  0  0  0  0  0
    4.9470   -6.6900    0.0000 O   0  0  0  0  0  0  0  0  0  0  0  0
    4.6499   -5.2922    0.0000 N   0  0  0  0  0  0  0  0  0  0  0  0
    3.8430   -5.4638    0.0000 C   0  0  0  0  0  0  0  0  0  0  0  0
    3.2909   -4.8507    0.0000 C   0  0  0  0  0  0  0  0  0  0  0  0
    3.5459   -4.0660    0.0000 C   0  0  0  0  0  0  0  0  0  0  0  0
    2.9938   -3.4530    0.0000 C   0  0  0  0  0  0  0  0  0  0  0  0
    3.2488   -2.6683    0.0000 N   0  0  0  0  0  0  0  0  0  0  0  0
    2.7639   -2.0009    0.0000 N   0  0  0  0  0  0  0  0  0  0  0  0
    3.2488   -1.3335    0.0000 C   0  0  0  0  0  0  0  0  0  0  0  0
    2.9938   -0.5488    0.0000 C   0  0  0  0  0  0  0  0  0  0  0  0
    2.1869   -0.3773    0.0000 C   0  0  0  0  0  0  0  0  0  0  0  0
    1.9319    0.4073    0.0000 N   0  0  0  0  0  0  0  0  0  0  0  0
    2.4840    1.0204    0.0000 C   0  0  0  0  0  0  0  0  0  0  0  0
    2.2290    1.8050    0.0000 C   0  0  0  0  0  0  0  0  0  0  0  0
    2.7811    2.4181    0.0000 C   0  0  0  0  0  0  0  0  0  0  0  0
    3.5880    2.2466    0.0000 C   0  0  0  0  0  0  0  0  0  0  0  0
    3.8430    1.4620    0.0000 C   0  0  0  0  0  0  0  0  0  0  0  0
    3.2909    0.8489    0.0000 C   0  0  0  0  0  0  0  0  0  0  0  0
    3.5459    0.0643    0.0000 C   0  0  0  0  0  0  0  0  0  0  0  0
    4.0334   -1.5884    0.0000 C   0  0  0  0  0  0  0  0  0  0  0  0
    4.7479   -1.1759    0.0000 C   0  0  0  0  0  0  0  0  0  0  0  0
    4.7479   -0.3509    0.0000 N   0  0  0  0  0  0  0  0  0  0  0  0
    5.4623   -1.5884    0.0000 N   0  0  0  0  0  0  0  0  0  0  0  0
    5.4623   -2.4134    0.0000 C   0  0  0  0  0  0  0  0  0  0  0  0
    4.7479   -2.8259    0.0000 N   0  0  0  0  0  0  0  0  0  0  0  0
    4.0334   -2.4134    0.0000 C   0  0  0  0  0  0  0  0  0  0  0  0
    4.3529   -3.8945    0.0000 C   0  0  0  0  0  0  0  0  0  0  0  0
    4.9049   -4.5076    0.0000 C   0  0  0  0  0  0  0  0  0  0  0  0
  1  2  1  0  0  0  0
  2  3  1  0  0  0  0
  2  4  1  0  0  0  0
  2  5  1  0  0  0  0
  5  6  1  0  0  0  0
  6  7  2  0  0  0  0
  6  8  1  0  0  0  0
  8  9  1  0  0  0  0
  9 10  1  0  0  0  0
 10 11  1  0  0  0  0
 11 12  1  0  0  0  0
 12 13  1  0  0  0  0
 13 14  1  0  0  0  0
 14 15  2  0  0  0  0
 15 16  1  0  0  0  0
 16 17  2  0  0  0  0
 17 18  1  0  0  0  0
 18 19  2  0  0  0  0
 19 20  1  0  0  0  0
 20 21  2  0  0  0  0
 21 22  1  0  0  0  0
 22 23  2  0  0  0  0
 23 24  1  0  0  0  0
 19 24  1  0  0  0  0
 24 25  2  0  0  0  0
 16 25  1  0  0  0  0
 15 26  1  0  0  0  0
 26 27  2  0  0  0  0
 27 28  1  0  0  0  0
 27 29  1  0  0  0  0
 29 30  2  0  0  0  0
 30 31  1  0  0  0  0
 31 32  2  0  0  0  0
 13 32  1  0  0  0  0
 26 32  1  0  0  0  0
 11 33  1  0  0  0  0
 33 34  1  0  0  0  0
  8 34  1  0  0  0  0
M  END
> <COMPOUND_ID>
MMV688364

$$$$

  Mrv0541 04191616472D          

 27 31  0  0  0  0            999 V2000
    4.7479   -0.3509    0.0000 N   0  0  0  0  0  0  0  0  0  0  0  0
    4.7479   -1.1759    0.0000 C   0  0  0  0  0  0  0  0  0  0  0  0
    5.4623   -1.5884    0.0000 N   0  0  0  0  0  0  0  0  0  0  0  0
    5.4623   -2.4134    0.0000 C   0  0  0  0  0  0  0  0  0  0  0  0
    4.7479   -2.8259    0.0000 N   0  0  0  0  0  0  0  0  0  0  0  0
    4.0334   -2.4134    0.0000 C   0  0  0  0  0  0  0  0  0  0  0  0
    3.2488   -2.6683    0.0000 N   0  0  0  0  0  0  0  0  0  0  0  0
    2.9938   -3.4530    0.0000 C   0  0  0  0  0  0  0  0  0  0  0  0
    3.5459   -4.0660    0.0000 C   0  0  0  0  0  0  0  0  0  0  0  0
    4.3529   -3.8945    0.0000 C   0  0  0  0  0  0  0  0  0  0  0  0
    4.9049   -4.5076    0.0000 C   0  0  0  0  0  0  0  0  0  0  0  0
    4.6499   -5.2922    0.0000 N   0  0  0  0  0  0  0  0  0  0  0  0
    3.8430   -5.4638    0.0000 C   0  0  0  0  0  0  0  0  0  0  0  0
    3.2909   -4.8507    0.0000 C   0  0  0  0  0  0  0  0  0  0  0  0
    2.7639   -2.0009    0.0000 N   0  0  0  0  0  0  0  0  0  0  0  0
    3.2488   -1.3335    0.0000 C   0  0  0  0  0  0  0  0  0  0  0  0
    2.9938   -0.5488    0.0000 C   0  0  0  0  0  0  0  0  0  0  0  0
    2.1869   -0.3773    0.0000 C   0  0  0  0  0  0  0  0  0  0  0  0
    1.9319    0.4073    0.0000 N   0  0  0  0  0  0  0  0  0  0  0  0
    2.4840    1.0204    0.0000 C   0  0  0  0  0  0  0  0  0  0  0  0
    2.2290    1.8050    0.0000 C   0  0  0  0  0  0  0  0  0  0  0  0
    2.7811    2.4181    0.0000 C   0  0  0  0  0  0  0  0  0  0  0  0
    3.5880    2.2466    0.0000 C   0  0  0  0  0  0  0  0  0  0  0  0
    3.8430    1.4620    0.0000 C   0  0  0  0  0  0  0  0  0  0  0  0
    3.2909    0.8489    0.0000 C   0  0  0  0  0  0  0  0  0  0  0  0
    3.5459    0.0643    0.0000 C   0  0  0  0  0  0  0  0  0  0  0  0
    4.0334   -1.5884    0.0000 C   0  0  0  0  0  0  0  0  0  0  0  0
  1  2  1  0  0  0  0
  2  3  1  0  0  0  0
  3  4  2  0  0  0  0
  4  5  1  0  0  0  0
  5  6  2  0  0  0  0
  6  7  1  0  0  0  0
  7  8  1  0  0  0  0
  8  9  1  0  0  0  0
  9 10  1  0  0  0  0
 10 11  1  0  0  0  0
 11 12  1  0  0  0  0
 12 13  1  0  0  0  0
 13 14  1  0  0  0  0
  9 14  1  0  0  0  0
  7 15  1  0  0  0  0
 15 16  2  0  0  0  0
 16 17  1  0  0  0  0
 17 18  2  0  0  0  0
 18 19  1  0  0  0  0
 19 20  2  0  0  0  0
 20 21  1  0  0  0  0
 21 22  2  0  0  0  0
 22 23  1  0  0  0  0
 23 24  2  0  0  0  0
 24 25  1  0  0  0  0
 20 25  1  0  0  0  0
 25 26  2  0  0  0  0
 17 26  1  0  0  0  0
 16 27  1  0  0  0  0
  2 27  2  0  0  0  0
  6 27  1  0  0  0  0
M  END
> <COMPOUND_ID>
MMV688411

$$$$

  Mrv0541 04191616472D          

 23 26  0  0  0  0            999 V2000
    2.5501   -4.6931    0.0000 C   0  0  0  0  0  0  0  0  0  0  0  0
    1.9981   -4.0800    0.0000 C   0  0  0  0  0  0  0  0  0  0  0  0
    1.1911   -4.2515    0.0000 C   0  0  0  0  0  0  0  0  0  0  0  0
    2.2530   -3.2954    0.0000 N   0  0  0  0  0  0  0  0  0  0  0  0
    1.7681   -2.6279    0.0000 N   0  0  0  0  0  0  0  0  0  0  0  0
    2.2530   -1.9605    0.0000 C   0  0  0  0  0  0  0  0  0  0  0  0
    1.9981   -1.1759    0.0000 C   0  0  0  0  0  0  0  0  0  0  0  0
    1.2134   -0.9209    0.0000 C   0  0  0  0  0  0  0  0  0  0  0  0
    1.2134   -0.0959    0.0000 C   0  0  0  0  0  0  0  0  0  0  0  0
    0.6004    0.4561    0.0000 C   0  0  0  0  0  0  0  0  0  0  0  0
   -0.1843    0.2011    0.0000 Cl  0  0  0  0  0  0  0  0  0  0  0  0
    0.7719    1.2631    0.0000 C   0  0  0  0  0  0  0  0  0  0  0  0
    1.5565    1.5180    0.0000 C   0  0  0  0  0  0  0  0  0  0  0  0
    2.1696    0.9660    0.0000 C   0  0  0  0  0  0  0  0  0  0  0  0
    1.9981    0.1590    0.0000 C   0  0  0  0  0  0  0  0  0  0  0  0
    2.4830   -0.5084    0.0000 N   0  0  0  0  0  0  0  0  0  0  0  0
    3.0376   -2.2154    0.0000 C   0  0  0  0  0  0  0  0  0  0  0  0
    3.7521   -1.8029    0.0000 C   0  0  0  0  0  0  0  0  0  0  0  0
    3.7521   -0.9779    0.0000 N   0  0  0  0  0  0  0  0  0  0  0  0
    4.4666   -2.2154    0.0000 N   0  0  0  0  0  0  0  0  0  0  0  0
    4.4666   -3.0404    0.0000 C   0  0  0  0  0  0  0  0  0  0  0  0
    3.7521   -3.4529    0.0000 N   0  0  0  0  0  0  0  0  0  0  0  0
    3.0376   -3.0404    0.0000 C   0  0  0  0  0  0  0  0  0  0  0  0
  1  2  1  0  0  0  0
  2  3  1  0  0  0  0
  2  4  1  0  0  0  0
  4  5  1  0  0  0  0
  5  6  2  0  0  0  0
  6  7  1  0  0  0  0
  7  8  2  0  0  0  0
  8  9  1  0  0  0  0
  9 10  2  0  0  0  0
 10 11  1  0  0  0  0
 10 12  1  0  0  0  0
 12 13  2  0  0  0  0
 13 14  1  0  0  0  0
 14 15  2  0  0  0  0
  9 15  1  0  0  0  0
 15 16  1  0  0  0  0
  7 16  1  0  0  0  0
  6 17  1  0  0  0  0
 17 18  2  0  0  0  0
 18 19  1  0  0  0  0
 18 20  1  0  0  0  0
 20 21  2  0  0  0  0
 21 22  1  0  0  0  0
 22 23  2  0  0  0  0
  4 23  1  0  0  0  0
 17 23  1  0  0  0  0
M  END
> <COMPOUND_ID>
MMV688417

$$$$

  Mrv0541 04191616472D          

 21 24  0  0  0  0            999 V2000
    5.4623    0.8866    0.0000 N   0  0  0  0  0  0  0  0  0  0  0  0
    5.4623    0.0616    0.0000 C   0  0  0  0  0  0  0  0  0  0  0  0
    6.1768   -0.3509    0.0000 N   0  0  0  0  0  0  0  0  0  0  0  0
    6.1768   -1.1759    0.0000 C   0  0  0  0  0  0  0  0  0  0  0  0
    5.4623   -1.5884    0.0000 N   0  0  0  0  0  0  0  0  0  0  0  0
    4.7479   -1.1759    0.0000 C   0  0  0  0  0  0  0  0  0  0  0  0
    3.9633   -1.4308    0.0000 N   0  0  0  0  0  0  0  0  0  0  0  0
    3.4783   -0.7634    0.0000 N   0  0  0  0  0  0  0  0  0  0  0  0
    3.9633   -0.0960    0.0000 C   0  0  0  0  0  0  0  0  0  0  0  0
    3.7083    0.6887    0.0000 C   0  0  0  0  0  0  0  0  0  0  0  0
    2.9013    0.8602    0.0000 C   0  0  0  0  0  0  0  0  0  0  0  0
    2.3493    0.2471    0.0000 C   0  0  0  0  0  0  0  0  0  0  0  0
    1.5423    0.4186    0.0000 C   0  0  0  0  0  0  0  0  0  0  0  0
    1.2874    1.2032    0.0000 C   0  0  0  0  0  0  0  0  0  0  0  0
    1.8394    1.8163    0.0000 C   0  0  0  0  0  0  0  0  0  0  0  0
    1.5845    2.6010    0.0000 C   0  0  0  0  0  0  0  0  0  0  0  0
    2.1365    3.2141    0.0000 C   0  0  0  0  0  0  0  0  0  0  0  0
    2.9435    3.0425    0.0000 C   0  0  0  0  0  0  0  0  0  0  0  0
    3.1984    2.2579    0.0000 C   0  0  0  0  0  0  0  0  0  0  0  0
    2.6464    1.6448    0.0000 C   0  0  0  0  0  0  0  0  0  0  0  0
    4.7479   -0.3509    0.0000 C   0  0  0  0  0  0  0  0  0  0  0  0
  1  2  1  0  0  0  0
  2  3  1  0  0  0  0
  3  4  2  0  0  0  0
  4  5  1  0  0  0  0
  5  6  2  0  0  0  0
  6  7  1  0  0  0  0
  7  8  1  0  0  0  0
  8  9  2  0  0  0  0
  9 10  1  0  0  0  0
 10 11  1  0  0  0  0
 11 12  1  0  0  0  0
 12 13  2  0  0  0  0
 13 14  1  0  0  0  0
 14 15  2  0  0  0  0
 15 16  1  0  0  0  0
 16 17  2  0  0  0  0
 17 18  1  0  0  0  0
 18 19  2  0  0  0  0
 19 20  1  0  0  0  0
 11 20  2  0  0  0  0
 15 20  1  0  0  0  0
  9 21  1  0  0  0  0
  2 21  2  0  0  0  0
  6 21  1  0  0  0  0
M  END
> <COMPOUND_ID>
MMV688469

$$$$

  Mrv0541 04191616472D          

 33 37  0  0  0  0            999 V2000
    2.9857   -6.7517    0.0000 C   0  0  0  0  0  0  0  0  0  0  0  0
    3.2406   -5.9670    0.0000 S   0  0  0  0  0  0  0  0  0  0  0  0
    4.0252   -6.2220    0.0000 O   0  0  0  0  0  0  0  0  0  0  0  0
    2.4560   -5.7121    0.0000 O   0  0  0  0  0  0  0  0  0  0  0  0
    3.4955   -5.1824    0.0000 N   0  0  0  0  0  0  0  0  0  0  0  0
    2.9435   -4.5693    0.0000 C   0  0  0  0  0  0  0  0  0  0  0  0
    3.1984   -3.7847    0.0000 C   0  0  0  0  0  0  0  0  0  0  0  0
    4.0054   -3.6132    0.0000 C   0  0  0  0  0  0  0  0  0  0  0  0
    4.2603   -2.8285    0.0000 C   0  0  0  0  0  0  0  0  0  0  0  0
    3.7083   -2.2155    0.0000 C   0  0  0  0  0  0  0  0  0  0  0  0
    3.9633   -1.4308    0.0000 N   0  0  0  0  0  0  0  0  0  0  0  0
    3.4783   -0.7634    0.0000 N   0  0  0  0  0  0  0  0  0  0  0  0
    3.9633   -0.0960    0.0000 C   0  0  0  0  0  0  0  0  0  0  0  0
    3.7083    0.6887    0.0000 C   0  0  0  0  0  0  0  0  0  0  0  0
    2.9013    0.8602    0.0000 C   0  0  0  0  0  0  0  0  0  0  0  0
    2.3493    0.2471    0.0000 C   0  0  0  0  0  0  0  0  0  0  0  0
    1.5423    0.4186    0.0000 C   0  0  0  0  0  0  0  0  0  0  0  0
    1.2874    1.2032    0.0000 C   0  0  0  0  0  0  0  0  0  0  0  0
    1.8394    1.8163    0.0000 C   0  0  0  0  0  0  0  0  0  0  0  0
    1.5845    2.6010    0.0000 C   0  0  0  0  0  0  0  0  0  0  0  0
    2.1365    3.2141    0.0000 C   0  0  0  0  0  0  0  0  0  0  0  0
    2.9435    3.0425    0.0000 C   0  0  0  0  0  0  0  0  0  0  0  0
    3.1984    2.2579    0.0000 C   0  0  0  0  0  0  0  0  0  0  0  0
    2.6464    1.6448    0.0000 C   0  0  0  0  0  0  0  0  0  0  0  0
    4.7479   -0.3509    0.0000 C   0  0  0  0  0  0  0  0  0  0  0  0
    5.4623    0.0616    0.0000 C   0  0  0  0  0  0  0  0  0  0  0  0
    5.4623    0.8866    0.0000 N   0  0  0  0  0  0  0  0  0  0  0  0
    6.1768   -0.3509    0.0000 N   0  0  0  0  0  0  0  0  0  0  0  0
    6.1768   -1.1759    0.0000 C   0  0  0  0  0  0  0  0  0  0  0  0
    5.4623   -1.5884    0.0000 N   0  0  0  0  0  0  0  0  0  0  0  0
    4.7479   -1.1759    0.0000 C   0  0  0  0  0  0  0  0  0  0  0  0
    4.5574   -4.2263    0.0000 C   0  0  0  0  0  0  0  0  0  0  0  0
    4.3025   -5.0109    0.0000 C   0  0  0  0  0  0  0  0  0  0  0  0
  1  2  1  0  0  0  0
  2  3  2  0  0  0  0
  2  4  2  0  0  0  0
  2  5  1  0  0  0  0
  5  6  1  0  0  0  0
  6  7  1  0  0  0  0
  7  8  1  0  0  0  0
  8  9  1  0  0  0  0
  9 10  1  0  0  0  0
 10 11  1  0  0  0  0
 11 12  1  0  0  0  0
 12 13  2  0  0  0  0
 13 14  1  0  0  0  0
 14 15  1  0  0  0  0
 15 16  1  0  0  0  0
 16 17  2  0  0  0  0
 17 18  1  0  0  0  0
 18 19  2  0  0  0  0
 19 20  1  0  0  0  0
 20 21  2  0  0  0  0
 21 22  1  0  0  0  0
 22 23  2  0  0  0  0
 23 24  1  0  0  0  0
 15 24  2  0  0  0  0
 19 24  1  0  0  0  0
 13 25  1  0  0  0  0
 25 26  2  0  0  0  0
 26 27  1  0  0  0  0
 26 28  1  0  0  0  0
 28 29  2  0  0  0  0
 29 30  1  0  0  0  0
 30 31  2  0  0  0  0
 11 31  1  0  0  0  0
 25 31  1  0  0  0  0
  8 32  1  0  0  0  0
 32 33  1  0  0  0  0
  5 33  1  0  0  0  0
M  END
> <COMPOUND_ID>
MMV688470

$$$$

  Mrv0541 04191616472D          

 26 29  0  0  0  0            999 V2000
    5.4957    3.1729    0.0000 C   0  0  0  0  0  0  0  0  0  0  0  0
    5.4957    2.3479    0.0000 C   0  0  0  0  0  0  0  0  0  0  0  0
    4.7812    1.9354    0.0000 C   0  0  0  0  0  0  0  0  0  0  0  0
    4.7812    1.1104    0.0000 O   0  0  0  0  0  0  0  0  0  0  0  0
    4.0668    2.3479    0.0000 N   0  0  0  0  0  0  0  0  0  0  0  0
    3.3523    1.9354    0.0000 C   0  0  0  0  0  0  0  0  0  0  0  0
    3.3523    1.1104    0.0000 C   0  0  0  0  0  0  0  0  0  0  0  0
    2.6378    0.6979    0.0000 C   0  0  0  0  0  0  0  0  0  0  0  0
    1.9233    1.1104    0.0000 C   0  0  0  0  0  0  0  0  0  0  0  0
    1.1387    0.8555    0.0000 O   0  0  0  0  0  0  0  0  0  0  0  0
    0.6538    1.5229    0.0000 C   0  0  0  0  0  0  0  0  0  0  0  0
    1.1387    2.1904    0.0000 N   0  0  0  0  0  0  0  0  0  0  0  0
    1.9233    1.9354    0.0000 C   0  0  0  0  0  0  0  0  0  0  0  0
    2.6378    2.3479    0.0000 C   0  0  0  0  0  0  0  0  0  0  0  0
   -0.1712    1.5229    0.0000 C   0  0  0  0  0  0  0  0  0  0  0  0
   -0.5837    0.8085    0.0000 C   0  0  0  0  0  0  0  0  0  0  0  0
   -1.4087    0.8085    0.0000 C   0  0  0  0  0  0  0  0  0  0  0  0
   -1.8212    1.5229    0.0000 N   0  0  0  0  0  0  0  0  0  0  0  0
   -1.4087    2.2374    0.0000 C   0  0  0  0  0  0  0  0  0  0  0  0
   -0.5837    2.2374    0.0000 C   0  0  0  0  0  0  0  0  0  0  0  0
    6.2102    1.9354    0.0000 C   0  0  0  0  0  0  0  0  0  0  0  0
    6.9246    2.3479    0.0000 C   0  0  0  0  0  0  0  0  0  0  0  0
    7.6391    1.9354    0.0000 C   0  0  0  0  0  0  0  0  0  0  0  0
    7.6391    1.1104    0.0000 C   0  0  0  0  0  0  0  0  0  0  0  0
    6.9246    0.6979    0.0000 C   0  0  0  0  0  0  0  0  0  0  0  0
    6.2102    1.1104    0.0000 C   0  0  0  0  0  0  0  0  0  0  0  0
  1  2  1  0  0  0  0
  2  3  1  0  0  0  0
  3  4  2  0  0  0  0
  3  5  1  0  0  0  0
  5  6  1  0  0  0  0
  6  7  2  0  0  0  0
  7  8  1  0  0  0  0
  8  9  2  0  0  0  0
  9 10  1  0  0  0  0
 10 11  1  0  0  0  0
 11 12  2  0  0  0  0
 12 13  1  0  0  0  0
  9 13  1  0  0  0  0
 13 14  2  0  0  0  0
  6 14  1  0  0  0  0
 11 15  1  0  0  0  0
 15 16  2  0  0  0  0
 16 17  1  0  0  0  0
 17 18  2  0  0  0  0
 18 19  1  0  0  0  0
 19 20  2  0  0  0  0
 15 20  1  0  0  0  0
  2 21  1  0  0  0  0
 21 22  2  0  0  0  0
 22 23  1  0  0  0  0
 23 24  2  0  0  0  0
 24 25  1  0  0  0  0
 25 26  2  0  0  0  0
 21 26  1  0  0  0  0
M  END
> <COMPOUND_ID>
MMV688471

$$$$

  Mrv0541 04191616472D          

 28 31  0  0  0  0            999 V2000
    5.4957    3.1729    0.0000 C   0  0  0  0  0  0  0  0  0  0  0  0
    5.4957    2.3479    0.0000 C   0  0  0  0  0  0  0  0  0  0  0  0
    6.2102    1.9354    0.0000 O   0  0  0  0  0  0  0  0  0  0  0  0
    6.9246    2.3479    0.0000 C   0  0  0  0  0  0  0  0  0  0  0  0
    6.9246    3.1729    0.0000 C   0  0  0  0  0  0  0  0  0  0  0  0
    7.6391    3.5854    0.0000 C   0  0  0  0  0  0  0  0  0  0  0  0
    8.3536    3.1729    0.0000 C   0  0  0  0  0  0  0  0  0  0  0  0
    8.3536    2.3479    0.0000 C   0  0  0  0  0  0  0  0  0  0  0  0
    9.0681    1.9354    0.0000 Cl  0  0  0  0  0  0  0  0  0  0  0  0
    7.6391    1.9354    0.0000 C   0  0  0  0  0  0  0  0  0  0  0  0
    4.7812    1.9354    0.0000 C   0  0  0  0  0  0  0  0  0  0  0  0
    4.7812    1.1104    0.0000 O   0  0  0  0  0  0  0  0  0  0  0  0
    4.0668    2.3479    0.0000 N   0  0  0  0  0  0  0  0  0  0  0  0
    3.3523    1.9354    0.0000 C   0  0  0  0  0  0  0  0  0  0  0  0
    3.3523    1.1104    0.0000 C   0  0  0  0  0  0  0  0  0  0  0  0
    2.6378    0.6979    0.0000 C   0  0  0  0  0  0  0  0  0  0  0  0
    1.9233    1.1104    0.0000 C   0  0  0  0  0  0  0  0  0  0  0  0
    1.1387    0.8555    0.0000 O   0  0  0  0  0  0  0  0  0  0  0  0
    0.6538    1.5229    0.0000 C   0  0  0  0  0  0  0  0  0  0  0  0
    1.1387    2.1904    0.0000 N   0  0  0  0  0  0  0  0  0  0  0  0
    1.9233    1.9354    0.0000 C   0  0  0  0  0  0  0  0  0  0  0  0
    2.6378    2.3479    0.0000 C   0  0  0  0  0  0  0  0  0  0  0  0
   -0.1712    1.5229    0.0000 C   0  0  0  0  0  0  0  0  0  0  0  0
   -0.5837    0.8085    0.0000 C   0  0  0  0  0  0  0  0  0  0  0  0
   -1.4087    0.8085    0.0000 C   0  0  0  0  0  0  0  0  0  0  0  0
   -1.8212    1.5229    0.0000 N   0  0  0  0  0  0  0  0  0  0  0  0
   -1.4087    2.2374    0.0000 C   0  0  0  0  0  0  0  0  0  0  0  0
   -0.5837    2.2374    0.0000 C   0  0  0  0  0  0  0  0  0  0  0  0
  1  2  1  0  0  0  0
  2  3  1  0  0  0  0
  3  4  1  0  0  0  0
  4  5  2  0  0  0  0
  5  6  1  0  0  0  0
  6  7  2  0  0  0  0
  7  8  1  0  0  0  0
  8  9  1  0  0  0  0
  8 10  2  0  0  0  0
  4 10  1  0  0  0  0
  2 11  1  0  0  0  0
 11 12  2  0  0  0  0
 11 13  1  0  0  0  0
 13 14  1  0  0  0  0
 14 15  2  0  0  0  0
 15 16  1  0  0  0  0
 16 17  2  0  0  0  0
 17 18  1  0  0  0  0
 18 19  1  0  0  0  0
 19 20  2  0  0  0  0
 20 21  1  0  0  0  0
 17 21  1  0  0  0  0
 21 22  2  0  0  0  0
 14 22  1  0  0  0  0
 19 23  1  0  0  0  0
 23 24  2  0  0  0  0
 24 25  1  0  0  0  0
 25 26  2  0  0  0  0
 26 27  1  0  0  0  0
 27 28  2  0  0  0  0
 23 28  1  0  0  0  0
M  END
> <COMPOUND_ID>
MMV688472

$$$$

  Mrv0541 04191616472D          

 34 38  0  0  0  0            999 V2000
    4.8946   -0.4741    0.0000 F   0  0  0  0  0  0  0  0  0  0  0  0
    4.8946   -1.2991    0.0000 C   0  0  0  0  0  0  0  0  0  0  0  0
    5.6091   -1.7116    0.0000 C   0  0  0  0  0  0  0  0  0  0  0  0
    5.6091   -2.5366    0.0000 C   0  0  0  0  0  0  0  0  0  0  0  0
    4.8946   -2.9491    0.0000 C   0  0  0  0  0  0  0  0  0  0  0  0
    4.1801   -2.5366    0.0000 C   0  0  0  0  0  0  0  0  0  0  0  0
    4.1801   -1.7116    0.0000 C   0  0  0  0  0  0  0  0  0  0  0  0
    4.8946   -3.7741    0.0000 C   0  0  0  0  0  0  0  0  0  0  0  0
    5.5620   -4.2590    0.0000 N   0  0  0  0  0  0  0  0  0  0  0  0
    5.3071   -5.0437    0.0000 C   0  0  0  0  0  0  0  0  0  0  0  0
    4.4821   -5.0437    0.0000 C   0  0  0  0  0  0  0  0  0  0  0  0
    4.2272   -4.2590    0.0000 C   0  0  0  0  0  0  0  0  0  0  0  0
    3.4425   -4.0041    0.0000 C   0  0  0  0  0  0  0  0  0  0  0  0
    2.8294   -4.5561    0.0000 C   0  0  0  0  0  0  0  0  0  0  0  0
    2.0448   -4.3012    0.0000 C   0  0  0  0  0  0  0  0  0  0  0  0
    1.8733   -3.4942    0.0000 N   0  0  0  0  0  0  0  0  0  0  0  0
    2.4864   -2.9422    0.0000 C   0  0  0  0  0  0  0  0  0  0  0  0
    3.2710   -3.1971    0.0000 C   0  0  0  0  0  0  0  0  0  0  0  0
    5.7920   -5.7111    0.0000 C   0  0  0  0  0  0  0  0  0  0  0  0
    6.6125   -5.6249    0.0000 C   0  0  0  0  0  0  0  0  0  0  0  0
    7.0974   -6.2923    0.0000 C   0  0  0  0  0  0  0  0  0  0  0  0
    6.7619   -7.0460    0.0000 N   0  0  0  0  0  0  0  0  0  0  0  0
    5.9414   -7.1322    0.0000 C   0  0  0  0  0  0  0  0  0  0  0  0
    5.4565   -6.4648    0.0000 C   0  0  0  0  0  0  0  0  0  0  0  0
    7.2468   -7.7134    0.0000 C   0  0  0  0  0  0  0  0  0  0  0  0
    8.0673   -7.6272    0.0000 O   0  0  0  0  0  0  0  0  0  0  0  0
    6.9112   -8.4671    0.0000 O   0  0  0  0  0  0  0  0  0  0  0  0
    7.3961   -9.1345    0.0000 C   0  0  0  0  0  0  0  0  0  0  0  0
    7.0606   -9.8882    0.0000 C   0  0  0  0  0  0  0  0  0  0  0  0
    7.5455  -10.5556    0.0000 C   0  0  0  0  0  0  0  0  0  0  0  0
    7.2100  -11.3093    0.0000 C   0  0  0  0  0  0  0  0  0  0  0  0
    6.3895  -11.3955    0.0000 C   0  0  0  0  0  0  0  0  0  0  0  0
    5.9046  -10.7281    0.0000 C   0  0  0  0  0  0  0  0  0  0  0  0
    6.2401   -9.9744    0.0000 C   0  0  0  0  0  0  0  0  0  0  0  0
  1  2  1  0  0  0  0
  2  3  2  0  0  0  0
  3  4  1  0  0  0  0
  4  5  2  0  0  0  0
  5  6  1  0  0  0  0
  6  7  2  0  0  0  0
  2  7  1  0  0  0  0
  5  8  1  0  0  0  0
  8  9  1  0  0  0  0
  9 10  1  0  0  0  0
 10 11  2  0  0  0  0
 11 12  1  0  0  0  0
  8 12  2  0  0  0  0
 12 13  1  0  0  0  0
 13 14  2  0  0  0  0
 14 15  1  0  0  0  0
 15 16  2  0  0  0  0
 16 17  1  0  0  0  0
 17 18  2  0  0  0  0
 13 18  1  0  0  0  0
 10 19  1  0  0  0  0
 19 20  1  0  0  0  0
 20 21  1  0  0  0  0
 21 22  1  0  0  0  0
 22 23  1  0  0  0  0
 23 24  1  0  0  0  0
 19 24  1  0  0  0  0
 22 25  1  0  0  0  0
 25 26  2  0  0  0  0
 25 27  1  0  0  0  0
 27 28  1  0  0  0  0
 28 29  1  0  0  0  0
 29 30  2  0  0  0  0
 30 31  1  0  0  0  0
 31 32  2  0  0  0  0
 32 33  1  0  0  0  0
 33 34  2  0  0  0  0
 29 34  1  0  0  0  0
M  END
> <COMPOUND_ID>
MMV688509

$$$$

  Mrv0541 04191616472D          

 20 22  0  0  0  0            999 V2000
    0.6288   -2.9346    0.0000 C   0  0  0  0  0  0  0  0  0  0  0  0
    0.8838   -2.1500    0.0000 C   0  0  0  0  0  0  0  0  0  0  0  0
    1.6684   -2.4049    0.0000 C   0  0  0  0  0  0  0  0  0  0  0  0
    0.0992   -1.8951    0.0000 C   0  0  0  0  0  0  0  0  0  0  0  0
    1.1387   -1.3654    0.0000 N   0  0  0  0  0  0  0  0  0  0  0  0
    0.6538   -0.6979    0.0000 N   0  0  0  0  0  0  0  0  0  0  0  0
    1.1387   -0.0305    0.0000 C   0  0  0  0  0  0  0  0  0  0  0  0
    0.8838    0.7541    0.0000 C   0  0  0  0  0  0  0  0  0  0  0  0
    0.0768    0.9256    0.0000 C   0  0  0  0  0  0  0  0  0  0  0  0
   -0.1781    1.7103    0.0000 C   0  0  0  0  0  0  0  0  0  0  0  0
    0.3739    2.3234    0.0000 C   0  0  0  0  0  0  0  0  0  0  0  0
    1.1809    2.1518    0.0000 C   0  0  0  0  0  0  0  0  0  0  0  0
    1.4358    1.3672    0.0000 C   0  0  0  0  0  0  0  0  0  0  0  0
    1.9233   -0.2854    0.0000 C   0  0  0  0  0  0  0  0  0  0  0  0
    2.6378    0.1271    0.0000 C   0  0  0  0  0  0  0  0  0  0  0  0
    2.6378    0.9521    0.0000 N   0  0  0  0  0  0  0  0  0  0  0  0
    3.3523   -0.2854    0.0000 N   0  0  0  0  0  0  0  0  0  0  0  0
    3.3523   -1.1104    0.0000 C   0  0  0  0  0  0  0  0  0  0  0  0
    2.6378   -1.5229    0.0000 N   0  0  0  0  0  0  0  0  0  0  0  0
    1.9233   -1.1104    0.0000 C   0  0  0  0  0  0  0  0  0  0  0  0
  1  2  1  0  0  0  0
  2  3  1  0  0  0  0
  2  4  1  0  0  0  0
  2  5  1  0  0  0  0
  5  6  1  0  0  0  0
  6  7  2  0  0  0  0
  7  8  1  0  0  0  0
  8  9  2  0  0  0  0
  9 10  1  0  0  0  0
 10 11  2  0  0  0  0
 11 12  1  0  0  0  0
 12 13  2  0  0  0  0
  8 13  1  0  0  0  0
  7 14  1  0  0  0  0
 14 15  2  0  0  0  0
 15 16  1  0  0  0  0
 15 17  1  0  0  0  0
 17 18  2  0  0  0  0
 18 19  1  0  0  0  0
 19 20  2  0  0  0  0
  5 20  1  0  0  0  0
 14 20  1  0  0  0  0
M  END
> <COMPOUND_ID>
MMV688548

$$$$

  Mrv0541 04191616472D          

 25 28  0  0  0  0            999 V2000
    0.7145    2.0625    0.0000 C   0  0  0  0  0  0  0  0  0  0  0  0
    0.7145    1.2375    0.0000 N   0  0  0  0  0  0  0  0  0  0  0  0
    1.4289    0.8250    0.0000 C   0  0  0  0  0  0  0  0  0  0  0  0
    1.4289   -0.0000    0.0000 C   0  0  0  0  0  0  0  0  0  0  0  0
    0.7145   -0.4125    0.0000 C   0  0  0  0  0  0  0  0  0  0  0  0
    0.0000   -0.0000    0.0000 C   0  0  0  0  0  0  0  0  0  0  0  0
    0.0000    0.8250    0.0000 C   0  0  0  0  0  0  0  0  0  0  0  0
    0.7145   -1.2375    0.0000 C   0  0  0  0  0  0  0  0  0  0  0  0
    1.3819   -1.7224    0.0000 C   0  0  0  0  0  0  0  0  0  0  0  0
    1.1270   -2.5070    0.0000 C   0  0  0  0  0  0  0  0  0  0  0  0
    0.3020   -2.5070    0.0000 C   0  0  0  0  0  0  0  0  0  0  0  0
    0.0470   -1.7224    0.0000 N   0  0  0  0  0  0  0  0  0  0  0  0
   -0.1830   -3.1745    0.0000 C   0  0  0  0  0  0  0  0  0  0  0  0
    0.1526   -3.9282    0.0000 C   0  0  0  0  0  0  0  0  0  0  0  0
   -0.3323   -4.5956    0.0000 C   0  0  0  0  0  0  0  0  0  0  0  0
   -1.1528   -4.5094    0.0000 C   0  0  0  0  0  0  0  0  0  0  0  0
   -1.6377   -5.1768    0.0000 F   0  0  0  0  0  0  0  0  0  0  0  0
   -1.4884   -3.7557    0.0000 C   0  0  0  0  0  0  0  0  0  0  0  0
   -1.0034   -3.0882    0.0000 C   0  0  0  0  0  0  0  0  0  0  0  0
    1.6119   -3.1745    0.0000 C   0  0  0  0  0  0  0  0  0  0  0  0
    2.4324   -3.0882    0.0000 C   0  0  0  0  0  0  0  0  0  0  0  0
    2.9173   -3.7557    0.0000 C   0  0  0  0  0  0  0  0  0  0  0  0
    2.5817   -4.5094    0.0000 N   0  0  0  0  0  0  0  0  0  0  0  0
    1.7613   -4.5956    0.0000 C   0  0  0  0  0  0  0  0  0  0  0  0
    1.2763   -3.9282    0.0000 C   0  0  0  0  0  0  0  0  0  0  0  0
  1  2  1  0  0  0  0
  2  3  1  0  0  0  0
  3  4  1  0  0  0  0
  4  5  1  0  0  0  0
  5  6  1  0  0  0  0
  6  7  1  0  0  0  0
  2  7  1  0  0  0  0
  5  8  1  0  0  0  0
  8  9  2  0  0  0  0
  9 10  1  0  0  0  0
 10 11  2  0  0  0  0
 11 12  1  0  0  0  0
  8 12  1  0  0  0  0
 11 13  1  0  0  0  0
 13 14  2  0  0  0  0
 14 15  1  0  0  0  0
 15 16  2  0  0  0  0
 16 17  1  0  0  0  0
 16 18  1  0  0  0  0
 18 19  2  0  0  0  0
 13 19  1  0  0  0  0
 10 20  1  0  0  0  0
 20 21  2  0  0  0  0
 21 22  1  0  0  0  0
 22 23  2  0  0  0  0
 23 24  1  0  0  0  0
 24 25  2  0  0  0  0
 20 25  1  0  0  0  0
M  END
> <COMPOUND_ID>
MMV688703

$$$$

  Mrv0541 04191616472D          

 26 28  0  0  0  0            999 V2000
   -0.1712   -0.6979    0.0000 C   0  0  0  0  0  0  0  0  0  0  0  0
    0.6538   -0.6979    0.0000 C   0  0  0  0  0  0  0  0  0  0  0  0
    1.1387   -0.0305    0.0000 C   0  0  0  0  0  0  0  0  0  0  0  0
    1.9233   -0.2854    0.0000 C   0  0  0  0  0  0  0  0  0  0  0  0
    2.6378    0.1271    0.0000 N   0  0  0  0  0  0  0  0  0  0  0  0
    3.3523   -0.2854    0.0000 C   0  0  0  0  0  0  0  0  0  0  0  0
    4.0668    0.1271    0.0000 N   0  0  0  0  0  0  0  0  0  0  0  0
    4.7812   -0.2854    0.0000 C   0  0  0  0  0  0  0  0  0  0  0  0
    4.7812   -1.1104    0.0000 O   0  0  0  0  0  0  0  0  0  0  0  0
    5.4957    0.1271    0.0000 C   0  0  0  0  0  0  0  0  0  0  0  0
    6.2102    0.5396    0.0000 C   0  0  0  0  0  0  0  0  0  0  0  0
    5.0832    0.8415    0.0000 C   0  0  0  0  0  0  0  0  0  0  0  0
    5.9082   -0.5874    0.0000 C   0  0  0  0  0  0  0  0  0  0  0  0
    3.3523   -1.1104    0.0000 N   0  0  0  0  0  0  0  0  0  0  0  0
    2.6378   -1.5229    0.0000 C   0  0  0  0  0  0  0  0  0  0  0  0
    2.6378   -2.3479    0.0000 Cl  0  0  0  0  0  0  0  0  0  0  0  0
    1.9233   -1.1104    0.0000 C   0  0  0  0  0  0  0  0  0  0  0  0
    1.1387   -1.3654    0.0000 N   0  0  0  0  0  0  0  0  0  0  0  0
    0.8838   -2.1500    0.0000 C   0  0  0  0  0  0  0  0  0  0  0  0
    0.0768   -2.3215    0.0000 C   0  0  0  0  0  0  0  0  0  0  0  0
   -0.1781   -3.1062    0.0000 C   0  0  0  0  0  0  0  0  0  0  0  0
   -0.9851   -3.2777    0.0000 C   0  0  0  0  0  0  0  0  0  0  0  0
   -1.5371   -2.6646    0.0000 C   0  0  0  0  0  0  0  0  0  0  0  0
   -2.3441   -2.8361    0.0000 Cl  0  0  0  0  0  0  0  0  0  0  0  0
   -1.2822   -1.8800    0.0000 C   0  0  0  0  0  0  0  0  0  0  0  0
   -0.4752   -1.7084    0.0000 C   0  0  0  0  0  0  0  0  0  0  0  0
  1  2  1  0  0  0  0
  2  3  2  0  0  0  0
  3  4  1  0  0  0  0
  4  5  2  0  0  0  0
  5  6  1  0  0  0  0
  6  7  1  0  0  0  0
  7  8  1  0  0  0  0
  8  9  2  0  0  0  0
  8 10  1  0  0  0  0
 10 11  1  0  0  0  0
 10 12  1  0  0  0  0
 10 13  1  0  0  0  0
  6 14  2  0  0  0  0
 14 15  1  0  0  0  0
 15 16  1  0  0  0  0
 15 17  2  0  0  0  0
  4 17  1  0  0  0  0
 17 18  1  0  0  0  0
  2 18  1  0  0  0  0
 18 19  1  0  0  0  0
 19 20  1  0  0  0  0
 20 21  2  0  0  0  0
 21 22  1  0  0  0  0
 22 23  2  0  0  0  0
 23 24  1  0  0  0  0
 23 25  1  0  0  0  0
 25 26  2  0  0  0  0
 20 26  1  0  0  0  0
M  END
> <COMPOUND_ID>
MMV688704

$$$$

  Mrv0541 04191616472D          

 23 25  0  0  0  0            999 V2000
    0.6288   -2.9346    0.0000 C   0  0  0  0  0  0  0  0  0  0  0  0
    0.8838   -2.1500    0.0000 C   0  0  0  0  0  0  0  0  0  0  0  0
    1.6684   -2.4049    0.0000 C   0  0  0  0  0  0  0  0  0  0  0  0
    0.0992   -1.8951    0.0000 C   0  0  0  0  0  0  0  0  0  0  0  0
    1.1387   -1.3654    0.0000 N   0  0  0  0  0  0  0  0  0  0  0  0
    0.6538   -0.6979    0.0000 N   0  0  0  0  0  0  0  0  0  0  0  0
    1.1387   -0.0305    0.0000 C   0  0  0  0  0  0  0  0  0  0  0  0
    0.8838    0.7541    0.0000 C   0  0  0  0  0  0  0  0  0  0  0  0
    1.4358    1.3672    0.0000 C   0  0  0  0  0  0  0  0  0  0  0  0
    1.1809    2.1518    0.0000 C   0  0  0  0  0  0  0  0  0  0  0  0
    1.7329    2.7649    0.0000 C   0  0  0  0  0  0  0  0  0  0  0  0
    2.5399    2.5934    0.0000 C   0  0  0  0  0  0  0  0  0  0  0  0
    3.0919    3.2065    0.0000 F   0  0  0  0  0  0  0  0  0  0  0  0
    2.7948    1.8088    0.0000 C   0  0  0  0  0  0  0  0  0  0  0  0
    3.6018    1.6373    0.0000 Cl  0  0  0  0  0  0  0  0  0  0  0  0
    2.2428    1.1957    0.0000 C   0  0  0  0  0  0  0  0  0  0  0  0
    1.9233   -0.2854    0.0000 C   0  0  0  0  0  0  0  0  0  0  0  0
    2.6378    0.1271    0.0000 C   0  0  0  0  0  0  0  0  0  0  0  0
    2.6378    0.9521    0.0000 N   0  0  0  0  0  0  0  0  0  0  0  0
    3.3523   -0.2854    0.0000 N   0  0  0  0  0  0  0  0  0  0  0  0
    3.3523   -1.1104    0.0000 C   0  0  0  0  0  0  0  0  0  0  0  0
    2.6378   -1.5229    0.0000 N   0  0  0  0  0  0  0  0  0  0  0  0
    1.9233   -1.1104    0.0000 C   0  0  0  0  0  0  0  0  0  0  0  0
  1  2  1  0  0  0  0
  2  3  1  0  0  0  0
  2  4  1  0  0  0  0
  2  5  1  0  0  0  0
  5  6  1  0  0  0  0
  6  7  2  0  0  0  0
  7  8  1  0  0  0  0
  8  9  1  0  0  0  0
  9 10  2  0  0  0  0
 10 11  1  0  0  0  0
 11 12  2  0  0  0  0
 12 13  1  0  0  0  0
 12 14  1  0  0  0  0
 14 15  1  0  0  0  0
 14 16  2  0  0  0  0
  9 16  1  0  0  0  0
  7 17  1  0  0  0  0
 17 18  2  0  0  0  0
 18 19  1  0  0  0  0
 18 20  1  0  0  0  0
 20 21  2  0  0  0  0
 21 22  1  0  0  0  0
 22 23  2  0  0  0  0
  5 23  1  0  0  0  0
 17 23  1  0  0  0  0
M  END
> <COMPOUND_ID>
MMV688852

$$$$

  Mrv0541 04191616472D          

 23 25  0  0  0  0            999 V2000
    5.5585   -0.8224    0.0000 C   0  0  0  0  0  0  0  0  0  0  0  0
    5.5585   -1.6474    0.0000 C   0  0  0  0  0  0  0  0  0  0  0  0
    6.2259   -2.1323    0.0000 C   0  0  0  0  0  0  0  0  0  0  0  0
    5.9710   -2.9169    0.0000 C   0  0  0  0  0  0  0  0  0  0  0  0
    6.4559   -3.5843    0.0000 N   0  0  0  0  0  0  0  0  0  0  0  0
    6.1203   -4.3380    0.0000 C   0  0  0  0  0  0  0  0  0  0  0  0
    5.2999   -4.4243    0.0000 O   0  0  0  0  0  0  0  0  0  0  0  0
    6.6053   -5.0055    0.0000 C   0  0  0  0  0  0  0  0  0  0  0  0
    7.4303   -5.0055    0.0000 C   0  0  0  0  0  0  0  0  0  0  0  0
    7.6852   -5.7901    0.0000 C   0  0  0  0  0  0  0  0  0  0  0  0
    7.0178   -6.2750    0.0000 C   0  0  0  0  0  0  0  0  0  0  0  0
    7.0178   -7.1000    0.0000 O   0  0  0  0  0  0  0  0  0  0  0  0
    6.3033   -7.5125    0.0000 C   0  0  0  0  0  0  0  0  0  0  0  0
    6.3033   -8.3375    0.0000 C   0  0  0  0  0  0  0  0  0  0  0  0
    5.5888   -8.7500    0.0000 C   0  0  0  0  0  0  0  0  0  0  0  0
    4.8744   -8.3375    0.0000 C   0  0  0  0  0  0  0  0  0  0  0  0
    4.1599   -8.7500    0.0000 Cl  0  0  0  0  0  0  0  0  0  0  0  0
    4.8744   -7.5125    0.0000 C   0  0  0  0  0  0  0  0  0  0  0  0
    5.5888   -7.1000    0.0000 C   0  0  0  0  0  0  0  0  0  0  0  0
    5.5888   -6.2750    0.0000 O   0  0  0  0  0  0  0  0  0  0  0  0
    6.3503   -5.7901    0.0000 O   0  0  0  0  0  0  0  0  0  0  0  0
    5.1460   -2.9169    0.0000 N   0  0  0  0  0  0  0  0  0  0  0  0
    4.8910   -2.1323    0.0000 O   0  0  0  0  0  0  0  0  0  0  0  0
  1  2  1  0  0  0  0
  2  3  2  0  0  0  0
  3  4  1  0  0  0  0
  4  5  1  0  0  0  0
  5  6  1  0  0  0  0
  6  7  2  0  0  0  0
  6  8  1  0  0  0  0
  8  9  2  0  0  0  0
  9 10  1  0  0  0  0
 10 11  2  0  0  0  0
 11 12  1  0  0  0  0
 12 13  1  0  0  0  0
 13 14  2  0  0  0  0
 14 15  1  0  0  0  0
 15 16  2  0  0  0  0
 16 17  1  0  0  0  0
 16 18  1  0  0  0  0
 18 19  2  0  0  0  0
 13 19  1  0  0  0  0
 19 20  1  0  0  0  0
 11 21  1  0  0  0  0
  8 21  1  0  0  0  0
  4 22  2  0  0  0  0
 22 23  1  0  0  0  0
  2 23  1  0  0  0  0
M  END
> <COMPOUND_ID>
MMV688955

$$$$

  Mrv0541 04191616472D          

 33 36  0  0  0  0            999 V2000
   -2.9646    2.4134    0.0000 C   0  0  0  0  0  0  0  0  0  0  0  0
   -2.2501    2.8259    0.0000 O   0  0  0  0  0  0  0  0  0  0  0  0
   -1.5356    2.4134    0.0000 C   0  0  0  0  0  0  0  0  0  0  0  0
   -1.5356    1.5884    0.0000 O   0  0  0  0  0  0  0  0  0  0  0  0
   -0.8212    2.8259    0.0000 C   0  0  0  0  0  0  0  0  0  0  0  0
   -0.8212    3.6509    0.0000 C   0  0  0  0  0  0  0  0  0  0  0  0
   -0.1067    4.0634    0.0000 C   0  0  0  0  0  0  0  0  0  0  0  0
    0.6078    3.6509    0.0000 C   0  0  0  0  0  0  0  0  0  0  0  0
    1.3222    4.0634    0.0000 F   0  0  0  0  0  0  0  0  0  0  0  0
    0.6078    2.8259    0.0000 C   0  0  0  0  0  0  0  0  0  0  0  0
   -0.1067    2.4134    0.0000 C   0  0  0  0  0  0  0  0  0  0  0  0
   -0.1067    1.5884    0.0000 N   0  0  0  0  0  0  0  0  0  0  0  0
    0.6078    1.1759    0.0000 S   0  0  0  0  0  0  0  0  0  0  0  0
    0.1953    0.4614    0.0000 O   0  0  0  0  0  0  0  0  0  0  0  0
    1.0203    1.8904    0.0000 O   0  0  0  0  0  0  0  0  0  0  0  0
    1.3222    0.7634    0.0000 C   0  0  0  0  0  0  0  0  0  0  0  0
    2.0367    1.1759    0.0000 C   0  0  0  0  0  0  0  0  0  0  0  0
    2.7512    0.7634    0.0000 C   0  0  0  0  0  0  0  0  0  0  0  0
    2.7512   -0.0616    0.0000 C   0  0  0  0  0  0  0  0  0  0  0  0
    2.0367   -0.4741    0.0000 C   0  0  0  0  0  0  0  0  0  0  0  0
    1.3222   -0.0616    0.0000 C   0  0  0  0  0  0  0  0  0  0  0  0
    2.0367   -1.2991    0.0000 C   0  0  0  0  0  0  0  0  0  0  0  0
    2.7041   -1.7840    0.0000 C   0  0  0  0  0  0  0  0  0  0  0  0
    2.4492   -2.5687    0.0000 N   0  0  0  0  0  0  0  0  0  0  0  0
    1.6242   -2.5687    0.0000 N   0  0  0  0  0  0  0  0  0  0  0  0
    1.1393   -3.2361    0.0000 C   0  0  0  0  0  0  0  0  0  0  0  0
    0.3188   -3.1499    0.0000 C   0  0  0  0  0  0  0  0  0  0  0  0
   -0.1661   -3.8173    0.0000 C   0  0  0  0  0  0  0  0  0  0  0  0
   -0.9866   -3.7311    0.0000 C   0  0  0  0  0  0  0  0  0  0  0  0
   -1.3222   -2.9774    0.0000 C   0  0  0  0  0  0  0  0  0  0  0  0
   -0.8372   -2.3099    0.0000 C   0  0  0  0  0  0  0  0  0  0  0  0
   -0.0168   -2.3962    0.0000 C   0  0  0  0  0  0  0  0  0  0  0  0
    1.3693   -1.7840    0.0000 C   0  0  0  0  0  0  0  0  0  0  0  0
  1  2  1  0  0  0  0
  2  3  1  0  0  0  0
  3  4  2  0  0  0  0
  3  5  1  0  0  0  0
  5  6  2  0  0  0  0
  6  7  1  0  0  0  0
  7  8  2  0  0  0  0
  8  9  1  0  0  0  0
  8 10  1  0  0  0  0
 10 11  2  0  0  0  0
  5 11  1  0  0  0  0
 11 12  1  0  0  0  0
 12 13  1  0  0  0  0
 13 14  2  0  0  0  0
 13 15  2  0  0  0  0
 13 16  1  0  0  0  0
 16 17  2  0  0  0  0
 17 18  1  0  0  0  0
 18 19  2  0  0  0  0
 19 20  1  0  0  0  0
 20 21  2  0  0  0  0
 16 21  1  0  0  0  0
 20 22  1  0  0  0  0
 22 23  1  0  0  0  0
 23 24  2  0  0  0  0
 24 25  1  0  0  0  0
 25 26  1  0  0  0  0
 26 27  1  0  0  0  0
 27 28  2  0  0  0  0
 28 29  1  0  0  0  0
 29 30  2  0  0  0  0
 30 31  1  0  0  0  0
 31 32  2  0  0  0  0
 27 32  1  0  0  0  0
 25 33  1  0  0  0  0
 22 33  2  0  0  0  0
M  END
> <COMPOUND_ID>
MMV688350

$$$$

  Mrv0541 04191616472D          

 31 34  0  0  0  0            999 V2000
   -5.0013    2.8875    0.0000 C   0  0  0  0  0  0  0  0  0  0  0  0
   -4.2868    2.4750    0.0000 C   0  0  0  0  0  0  0  0  0  0  0  0
   -4.6993    1.7605    0.0000 C   0  0  0  0  0  0  0  0  0  0  0  0
   -3.8743    3.1895    0.0000 C   0  0  0  0  0  0  0  0  0  0  0  0
   -3.5724    2.0625    0.0000 O   0  0  0  0  0  0  0  0  0  0  0  0
   -2.8579    2.4750    0.0000 C   0  0  0  0  0  0  0  0  0  0  0  0
   -2.8579    3.3000    0.0000 O   0  0  0  0  0  0  0  0  0  0  0  0
   -2.1434    2.0625    0.0000 N   0  0  0  0  0  0  0  0  0  0  0  0
   -1.4289    2.4750    0.0000 C   0  0  0  0  0  0  0  0  0  0  0  0
   -0.7145    2.0625    0.0000 C   0  0  0  0  0  0  0  0  0  0  0  0
   -0.7145    1.2375    0.0000 N   0  0  0  0  0  0  0  0  0  0  0  0
   -1.4289    0.8250    0.0000 C   0  0  0  0  0  0  0  0  0  0  0  0
   -2.1434    1.2375    0.0000 C   0  0  0  0  0  0  0  0  0  0  0  0
    0.0000    0.8250    0.0000 C   0  0  0  0  0  0  0  0  0  0  0  0
    0.7145    1.2375    0.0000 N   0  0  0  0  0  0  0  0  0  0  0  0
    1.4289    0.8250    0.0000 C   0  0  0  0  0  0  0  0  0  0  0  0
    1.4289   -0.0000    0.0000 C   0  0  0  0  0  0  0  0  0  0  0  0
    0.7145   -0.4125    0.0000 C   0  0  0  0  0  0  0  0  0  0  0  0
    0.0000   -0.0000    0.0000 N   0  0  0  0  0  0  0  0  0  0  0  0
    0.7145   -1.2375    0.0000 C   0  0  0  0  0  0  0  0  0  0  0  0
    1.3819   -1.7224    0.0000 C   0  0  0  0  0  0  0  0  0  0  0  0
    1.1270   -2.5070    0.0000 C   0  0  0  0  0  0  0  0  0  0  0  0
    0.3020   -2.5070    0.0000 C   0  0  0  0  0  0  0  0  0  0  0  0
    0.0470   -1.7224    0.0000 S   0  0  0  0  0  0  0  0  0  0  0  0
   -0.1830   -3.1745    0.0000 C   0  0  0  0  0  0  0  0  0  0  0  0
    0.1526   -3.9282    0.0000 C   0  0  0  0  0  0  0  0  0  0  0  0
   -0.3323   -4.5956    0.0000 C   0  0  0  0  0  0  0  0  0  0  0  0
   -1.1528   -4.5094    0.0000 C   0  0  0  0  0  0  0  0  0  0  0  0
   -1.6377   -5.1768    0.0000 Cl  0  0  0  0  0  0  0  0  0  0  0  0
   -1.4884   -3.7557    0.0000 C   0  0  0  0  0  0  0  0  0  0  0  0
   -1.0034   -3.0882    0.0000 C   0  0  0  0  0  0  0  0  0  0  0  0
  1  2  1  0  0  0  0
  2  3  1  0  0  0  0
  2  4  1  0  0  0  0
  2  5  1  0  0  0  0
  5  6  1  0  0  0  0
  6  7  2  0  0  0  0
  6  8  1  0  0  0  0
  8  9  1  0  0  0  0
  9 10  1  0  0  0  0
 10 11  1  0  0  0  0
 11 12  1  0  0  0  0
 12 13  1  0  0  0  0
  8 13  1  0  0  0  0
 11 14  1  0  0  0  0
 14 15  2  0  0  0  0
 15 16  1  0  0  0  0
 16 17  2  0  0  0  0
 17 18  1  0  0  0  0
 18 19  2  0  0  0  0
 14 19  1  0  0  0  0
 18 20  1  0  0  0  0
 20 21  2  0  0  0  0
 21 22  1  0  0  0  0
 22 23  2  0  0  0  0
 23 24  1  0  0  0  0
 20 24  1  0  0  0  0
 23 25  1  0  0  0  0
 25 26  2  0  0  0  0
 26 27  1  0  0  0  0
 27 28  2  0  0  0  0
 28 29  1  0  0  0  0
 28 30  1  0  0  0  0
 30 31  2  0  0  0  0
 25 31  1  0  0  0  0
M  END
> <COMPOUND_ID>
MMV688416

$$$$

  Mrv0541 04191616472D          

 31 32  0  0  1  0            999 V2000
    0.8826   -4.3342    0.0000 C   0  0  0  0  0  0  0  0  0  0  0  0
    0.1681   -3.9217    0.0000 C   0  0  0  0  0  0  0  0  0  0  0  0
   -0.2444   -4.6361    0.0000 C   0  0  0  0  0  0  0  0  0  0  0  0
    0.5806   -3.2072    0.0000 C   0  0  0  0  0  0  0  0  0  0  0  0
   -0.5463   -3.5092    0.0000 C   0  0  0  0  0  0  0  0  0  0  0  0
   -1.2608   -3.9217    0.0000 O   0  0  0  0  0  0  0  0  0  0  0  0
   -0.5463   -2.6842    0.0000 N   0  0  0  0  0  0  0  0  0  0  0  0
    0.1681   -2.2717    0.0000 C   0  0  0  0  0  0  0  0  0  0  0  0
    0.8826   -2.6842    0.0000 C   0  0  0  0  0  0  0  0  0  0  0  0
    1.5971   -2.2717    0.0000 C   0  0  0  0  0  0  0  0  0  0  0  0
    2.3116   -2.6842    0.0000 C   0  0  0  0  0  0  0  0  0  0  0  0
    3.0260   -2.2717    0.0000 C   0  0  0  0  0  0  0  0  0  0  0  0
    3.7405   -2.6842    0.0000 C   0  0  0  0  0  0  0  0  0  0  0  0
    4.4550   -2.2717    0.0000 N   0  0  0  0  0  0  0  0  0  0  0  0
    4.4550   -1.4467    0.0000 C   0  0  0  0  0  0  0  0  0  0  0  0
    5.1694   -1.0342    0.0000 C   0  0  2  0  0  0  0  0  0  0  0  0
    5.1694   -0.2092    0.0000 O   0  0  0  0  0  0  0  0  0  0  0  0
    5.8839   -1.4467    0.0000 C   0  0  1  0  0  0  0  0  0  0  0  0
    6.5984   -1.0342    0.0000 O   0  0  0  0  0  0  0  0  0  0  0  0
    5.8839   -2.2717    0.0000 C   0  0  2  0  0  0  0  0  0  0  0  0
    6.5984   -2.6842    0.0000 O   0  0  0  0  0  0  0  0  0  0  0  0
    5.1694   -2.6842    0.0000 C   0  0  1  0  0  0  0  0  0  0  0  0
    5.1694   -3.5092    0.0000 C   0  0  0  0  0  0  0  0  0  0  0  0
    4.4550   -3.9217    0.0000 O   0  0  0  0  0  0  0  0  0  0  0  0
   -1.2608   -2.2717    0.0000 C   0  0  0  0  0  0  0  0  0  0  0  0
   -1.9424   -2.7364    0.0000 C   0  0  0  0  0  0  0  0  0  0  0  0
   -2.7308   -2.4932    0.0000 C   0  0  0  0  0  0  0  0  0  0  0  0
   -3.0322   -1.7252    0.0000 C   0  0  0  0  0  0  0  0  0  0  0  0
   -2.6197   -1.0108    0.0000 C   0  0  0  0  0  0  0  0  0  0  0  0
   -1.8039   -0.8878    0.0000 C   0  0  0  0  0  0  0  0  0  0  0  0
   -1.1991   -1.4490    0.0000 C   0  0  0  0  0  0  0  0  0  0  0  0
  1  2  1  0  0  0  0
  2  3  1  0  0  0  0
  2  4  1  0  0  0  0
  2  5  1  0  0  0  0
  5  6  2  0  0  0  0
  5  7  1  0  0  0  0
  7  8  1  0  0  0  0
  8  9  1  0  0  0  0
  9 10  1  0  0  0  0
 10 11  1  0  0  0  0
 11 12  1  0  0  0  0
 12 13  1  0  0  0  0
 13 14  1  0  0  0  0
 14 15  1  0  0  0  0
 15 16  1  0  0  0  0
 16 17  1  6  0  0  0
 16 18  1  0  0  0  0
 18 19  1  1  0  0  0
 18 20  1  0  0  0  0
 20 21  1  6  0  0  0
 20 22  1  0  0  0  0
 14 22  1  0  0  0  0
 22 23  1  1  0  0  0
 23 24  1  0  0  0  0
  7 25  1  0  0  0  0
 25 26  1  0  0  0  0
 26 27  1  0  0  0  0
 27 28  1  0  0  0  0
 28 29  1  0  0  0  0
 29 30  1  0  0  0  0
 30 31  1  0  0  0  0
 25 31  1  0  0  0  0
M  END
> <COMPOUND_ID>
MMV688543

$$$$

  Mrv0541 04191616472D          

 32 37  0  0  1  0            999 V2000
   -7.5114    2.3565    0.0000 O   0  0  0  0  0  0  0  0  0  0  0  0
   -6.6909    2.4427    0.0000 C   0  0  0  0  0  0  0  0  0  0  0  0
   -6.2060    1.7753    0.0000 C   0  0  1  0  0  0  0  0  0  0  0  0
   -5.3810    1.7753    0.0000 O   0  0  0  0  0  0  0  0  0  0  0  0
   -5.1261    0.9906    0.0000 C   0  0  2  0  0  0  0  0  0  0  0  0
   -5.7935    0.5057    0.0000 C   0  0  0  0  0  0  0  0  0  0  0  0
   -5.7935   -0.3193    0.0000 O   0  0  0  0  0  0  0  0  0  0  0  0
   -6.4610    0.9906    0.0000 C   0  0  1  0  0  0  0  0  0  0  0  0
   -7.2456    0.7357    0.0000 O   0  0  0  0  0  0  0  0  0  0  0  0
   -4.3415    0.7357    0.0000 N   0  0  0  0  0  0  0  0  0  0  0  0
   -3.6740    1.2206    0.0000 C   0  0  0  0  0  0  0  0  0  0  0  0
   -3.5878    2.0411    0.0000 C   0  0  0  0  0  0  0  0  0  0  0  0
   -2.8341    2.3767    0.0000 C   0  0  0  0  0  0  0  0  0  0  0  0
   -2.1667    1.8917    0.0000 C   0  0  0  0  0  0  0  0  0  0  0  0
   -1.4130    2.2273    0.0000 Cl  0  0  0  0  0  0  0  0  0  0  0  0
   -2.2529    1.0713    0.0000 C   0  0  0  0  0  0  0  0  0  0  0  0
   -3.0066    0.7357    0.0000 C   0  0  0  0  0  0  0  0  0  0  0  0
   -3.2615   -0.0489    0.0000 C   0  0  0  0  0  0  0  0  0  0  0  0
   -2.8490   -0.7634    0.0000 C   0  0  0  0  0  0  0  0  0  0  0  0
   -3.2615   -1.4779    0.0000 N   0  0  0  0  0  0  0  0  0  0  0  0
   -4.0865   -1.4779    0.0000 C   0  0  0  0  0  0  0  0  0  0  0  0
   -4.4990   -0.7634    0.0000 N   0  0  0  0  0  0  0  0  0  0  0  0
   -4.0865   -0.0489    0.0000 C   0  0  0  0  0  0  0  0  0  0  0  0
   -2.0240   -0.7634    0.0000 C   0  0  0  0  0  0  0  0  0  0  0  0
   -1.5391   -0.0960    0.0000 O   0  0  0  0  0  0  0  0  0  0  0  0
   -0.7545   -0.3509    0.0000 C   0  0  0  0  0  0  0  0  0  0  0  0
   -0.0400    0.0616    0.0000 C   0  0  0  0  0  0  0  0  0  0  0  0
    0.6745   -0.3509    0.0000 C   0  0  0  0  0  0  0  0  0  0  0  0
    0.6745   -1.1759    0.0000 C   0  0  0  0  0  0  0  0  0  0  0  0
   -0.0400   -1.5884    0.0000 C   0  0  0  0  0  0  0  0  0  0  0  0
   -0.7545   -1.1759    0.0000 C   0  0  0  0  0  0  0  0  0  0  0  0
   -1.5391   -1.4308    0.0000 C   0  0  0  0  0  0  0  0  0  0  0  0
  1  2  1  0  0  0  0
  3  2  1  1  0  0  0
  3  4  1  0  0  0  0
  4  5  1  0  0  0  0
  5  6  1  0  0  0  0
  6  7  1  0  0  0  0
  6  8  1  0  0  0  0
  3  8  1  0  0  0  0
  8  9  1  1  0  0  0
  5 10  1  1  0  0  0
 10 11  1  0  0  0  0
 11 12  1  0  0  0  0
 12 13  2  0  0  0  0
 13 14  1  0  0  0  0
 14 15  1  0  0  0  0
 14 16  2  0  0  0  0
 16 17  1  0  0  0  0
 11 17  2  0  0  0  0
 17 18  1  0  0  0  0
 18 19  1  0  0  0  0
 19 20  2  0  0  0  0
 20 21  1  0  0  0  0
 21 22  2  0  0  0  0
 22 23  1  0  0  0  0
 10 23  1  0  0  0  0
 18 23  2  0  0  0  0
 19 24  1  0  0  0  0
 24 25  1  0  0  0  0
 25 26  1  0  0  0  0
 26 27  2  0  0  0  0
 27 28  1  0  0  0  0
 28 29  2  0  0  0  0
 29 30  1  0  0  0  0
 30 31  2  0  0  0  0
 26 31  1  0  0  0  0
 31 32  1  0  0  0  0
 24 32  2  0  0  0  0
M  END
> <COMPOUND_ID>
MMV688921

$$$$

  Mrv0541 04191616472D          

 38 43  0  0  1  0            999 V2000
    3.3349   -4.8610    0.0000 Cl  0  0  0  0  0  0  0  0  0  0  0  0
    2.5503   -4.6060    0.0000 C   0  0  0  0  0  0  0  0  0  0  0  0
    1.9372   -5.1581    0.0000 C   0  0  0  0  0  0  0  0  0  0  0  0
    1.1526   -4.9031    0.0000 C   0  0  0  0  0  0  0  0  0  0  0  0
    0.9810   -4.0962    0.0000 C   0  0  0  0  0  0  0  0  0  0  0  0
    1.5941   -3.5441    0.0000 C   0  0  0  0  0  0  0  0  0  0  0  0
    2.3788   -3.7991    0.0000 C   0  0  0  0  0  0  0  0  0  0  0  0
    0.1964   -3.8412    0.0000 C   0  0  2  0  0  0  0  0  0  0  0  0
   -0.5387   -4.2158    0.0000 C   0  0  2  0  0  0  0  0  0  0  0  0
   -0.7936   -5.0004    0.0000 O   0  0  0  0  0  0  0  0  0  0  0  0
   -1.6006   -5.1719    0.0000 C   0  0  0  0  0  0  0  0  0  0  0  0
   -1.8555   -5.9565    0.0000 C   0  0  0  0  0  0  0  0  0  0  0  0
   -2.6625   -6.1281    0.0000 C   0  0  0  0  0  0  0  0  0  0  0  0
   -3.2145   -5.5150    0.0000 C   0  0  0  0  0  0  0  0  0  0  0  0
   -2.9596   -4.7304    0.0000 C   0  0  0  0  0  0  0  0  0  0  0  0
   -2.1526   -4.5588    0.0000 C   0  0  0  0  0  0  0  0  0  0  0  0
   -0.9132   -3.4807    0.0000 C   0  0  0  0  0  0  0  0  0  0  0  0
   -1.6978   -3.2258    0.0000 O   0  0  0  0  0  0  0  0  0  0  0  0
   -0.1781   -3.1062    0.0000 N   0  0  0  0  0  0  0  0  0  0  0  0
    0.0768   -2.3215    0.0000 C   0  0  0  0  0  0  0  0  0  0  0  0
    0.8838   -2.1500    0.0000 C   0  0  0  0  0  0  0  0  0  0  0  0
    1.1387   -1.3654    0.0000 N   0  0  0  0  0  0  0  0  0  0  0  0
    0.6538   -0.6979    0.0000 C   0  0  0  0  0  0  0  0  0  0  0  0
    1.1387   -0.0305    0.0000 N   0  0  0  0  0  0  0  0  0  0  0  0
    1.9233   -0.2854    0.0000 C   0  0  0  0  0  0  0  0  0  0  0  0
    2.6378    0.1271    0.0000 C   0  0  0  0  0  0  0  0  0  0  0  0
    2.6378    0.9521    0.0000 N   0  0  0  0  0  0  0  0  0  0  0  0
    1.9233    1.3646    0.0000 C   0  0  0  0  0  0  0  0  0  0  0  0
    1.9233    2.1896    0.0000 C   0  0  0  0  0  0  0  0  0  0  0  0
    1.2089    2.6021    0.0000 C   0  0  0  0  0  0  0  0  0  0  0  0
    1.2089    3.4271    0.0000 C   0  0  0  0  0  0  0  0  0  0  0  0
    1.9233    3.8396    0.0000 C   0  0  0  0  0  0  0  0  0  0  0  0
    2.6378    3.4271    0.0000 C   0  0  0  0  0  0  0  0  0  0  0  0
    2.6378    2.6021    0.0000 C   0  0  0  0  0  0  0  0  0  0  0  0
    3.3523   -0.2854    0.0000 N   0  0  0  0  0  0  0  0  0  0  0  0
    3.3523   -1.1104    0.0000 C   0  0  0  0  0  0  0  0  0  0  0  0
    2.6378   -1.5229    0.0000 N   0  0  0  0  0  0  0  0  0  0  0  0
    1.9233   -1.1104    0.0000 C   0  0  0  0  0  0  0  0  0  0  0  0
  1  2  1  0  0  0  0
  2  3  2  0  0  0  0
  3  4  1  0  0  0  0
  4  5  2  0  0  0  0
  5  6  1  0  0  0  0
  6  7  2  0  0  0  0
  2  7  1  0  0  0  0
  8  5  1  6  0  0  0
  8  9  1  0  0  0  0
  9 10  1  6  0  0  0
 10 11  1  0  0  0  0
 11 12  2  0  0  0  0
 12 13  1  0  0  0  0
 13 14  2  0  0  0  0
 14 15  1  0  0  0  0
 15 16  2  0  0  0  0
 11 16  1  0  0  0  0
  9 17  1  0  0  0  0
 17 18  2  0  0  0  0
 17 19  1  0  0  0  0
  8 19  1  0  0  0  0
 19 20  1  0  0  0  0
 20 21  1  0  0  0  0
 21 22  1  0  0  0  0
 22 23  1  0  0  0  0
 23 24  2  0  0  0  0
 24 25  1  0  0  0  0
 25 26  2  0  0  0  0
 26 27  1  0  0  0  0
 27 28  1  0  0  0  0
 28 29  1  0  0  0  0
 29 30  2  0  0  0  0
 30 31  1  0  0  0  0
 31 32  2  0  0  0  0
 32 33  1  0  0  0  0
 33 34  2  0  0  0  0
 29 34  1  0  0  0  0
 26 35  1  0  0  0  0
 35 36  2  0  0  0  0
 36 37  1  0  0  0  0
 37 38  2  0  0  0  0
 22 38  1  0  0  0  0
 25 38  1  0  0  0  0
M  END
> <COMPOUND_ID>
MMV688352

$$$$

  Mrv0541 04191616472D          

 37 41  0  0  1  0            999 V2000
    1.4289   -5.7750    0.0000 C   0  0  0  0  0  0  0  0  0  0  0  0
    1.4289   -4.9500    0.0000 O   0  0  0  0  0  0  0  0  0  0  0  0
    0.7145   -4.5375    0.0000 C   0  0  0  0  0  0  0  0  0  0  0  0
    0.0000   -4.9500    0.0000 N   0  0  0  0  0  0  0  0  0  0  0  0
   -0.7145   -4.5375    0.0000 C   0  0  0  0  0  0  0  0  0  0  0  0
   -1.4289   -4.9500    0.0000 C   0  0  0  0  0  0  0  0  0  0  0  0
   -2.1434   -4.5375    0.0000 C   0  0  0  0  0  0  0  0  0  0  0  0
   -2.1434   -3.7125    0.0000 C   0  0  0  0  0  0  0  0  0  0  0  0
   -2.8579   -3.3000    0.0000 Br  0  0  0  0  0  0  0  0  0  0  0  0
   -1.4289   -3.3000    0.0000 C   0  0  0  0  0  0  0  0  0  0  0  0
   -0.7145   -3.7125    0.0000 C   0  0  0  0  0  0  0  0  0  0  0  0
    0.0000   -3.3000    0.0000 C   0  0  0  0  0  0  0  0  0  0  0  0
    0.7145   -3.7125    0.0000 C   0  0  0  0  0  0  0  0  0  0  0  0
    1.4289   -3.3000    0.0000 C   0  0  1  0  0  0  0  0  0  0  0  0
    2.1434   -3.7125    0.0000 C   0  0  0  0  0  0  0  0  0  0  0  0
    2.8579   -3.3000    0.0000 C   0  0  0  0  0  0  0  0  0  0  0  0
    3.5724   -3.7125    0.0000 C   0  0  0  0  0  0  0  0  0  0  0  0
    3.5724   -4.5375    0.0000 C   0  0  0  0  0  0  0  0  0  0  0  0
    2.8579   -4.9500    0.0000 C   0  0  0  0  0  0  0  0  0  0  0  0
    2.1434   -4.5375    0.0000 C   0  0  0  0  0  0  0  0  0  0  0  0
    1.4289   -2.4750    0.0000 C   0  0  1  0  0  0  0  0  0  0  0  0
    2.2539   -2.4750    0.0000 O   0  0  0  0  0  0  0  0  0  0  0  0
    0.6039   -2.4750    0.0000 C   0  0  0  0  0  0  0  0  0  0  0  0
    0.1914   -1.7605    0.0000 C   0  0  0  0  0  0  0  0  0  0  0  0
   -0.6336   -1.7605    0.0000 N   0  0  0  0  0  0  0  0  0  0  0  0
   -1.0461   -1.0461    0.0000 C   0  0  0  0  0  0  0  0  0  0  0  0
   -1.0461   -2.4750    0.0000 C   0  0  0  0  0  0  0  0  0  0  0  0
    1.4289   -1.6500    0.0000 C   0  0  0  0  0  0  0  0  0  0  0  0
    0.7145   -1.2375    0.0000 C   0  0  0  0  0  0  0  0  0  0  0  0
    0.7145   -0.4125    0.0000 C   0  0  0  0  0  0  0  0  0  0  0  0
    1.4289    0.0000    0.0000 C   0  0  0  0  0  0  0  0  0  0  0  0
    2.1434   -0.4125    0.0000 C   0  0  0  0  0  0  0  0  0  0  0  0
    2.8579    0.0000    0.0000 C   0  0  0  0  0  0  0  0  0  0  0  0
    3.5724   -0.4125    0.0000 C   0  0  0  0  0  0  0  0  0  0  0  0
    3.5724   -1.2375    0.0000 C   0  0  0  0  0  0  0  0  0  0  0  0
    2.8579   -1.6500    0.0000 C   0  0  0  0  0  0  0  0  0  0  0  0
    2.1434   -1.2375    0.0000 C   0  0  0  0  0  0  0  0  0  0  0  0
  1  2  1  0  0  0  0
  2  3  1  0  0  0  0
  3  4  1  0  0  0  0
  4  5  2  0  0  0  0
  5  6  1  0  0  0  0
  6  7  2  0  0  0  0
  7  8  1  0  0  0  0
  8  9  1  0  0  0  0
  8 10  2  0  0  0  0
 10 11  1  0  0  0  0
  5 11  1  0  0  0  0
 11 12  2  0  0  0  0
 12 13  1  0  0  0  0
  3 13  2  0  0  0  0
 13 14  1  0  0  0  0
 14 15  1  6  0  0  0
 15 16  2  0  0  0  0
 16 17  1  0  0  0  0
 17 18  2  0  0  0  0
 18 19  1  0  0  0  0
 19 20  2  0  0  0  0
 15 20  1  0  0  0  0
 14 21  1  0  0  0  0
 21 22  1  6  0  0  0
 21 23  1  0  0  0  0
 23 24  1  0  0  0  0
 24 25  1  0  0  0  0
 25 26  1  0  0  0  0
 25 27  1  0  0  0  0
 21 28  1  1  0  0  0
 28 29  1  0  0  0  0
 29 30  2  0  0  0  0
 30 31  1  0  0  0  0
 31 32  2  0  0  0  0
 32 33  1  0  0  0  0
 33 34  2  0  0  0  0
 34 35  1  0  0  0  0
 35 36  2  0  0  0  0
 36 37  1  0  0  0  0
 28 37  2  0  0  0  0
 32 37  1  0  0  0  0
M  END
> <COMPOUND_ID>
MMV689758

$$$$

  Mrv0541 04191616472D          

 25 26  0  0  0  0            999 V2000
    0.0000   -7.4250    0.0000 N   0  0  0  0  0  0  0  0  0  0  0  0
    0.0000   -6.6000    0.0000 C   0  0  0  0  0  0  0  0  0  0  0  0
   -0.7145   -6.1875    0.0000 N   0  0  0  0  0  0  0  0  0  0  0  0
    0.7145   -6.1875    0.0000 C   0  0  0  0  0  0  0  0  0  0  0  0
    0.7145   -5.3625    0.0000 C   0  0  0  0  0  0  0  0  0  0  0  0
    1.4289   -4.9500    0.0000 C   0  0  0  0  0  0  0  0  0  0  0  0
    2.1434   -5.3625    0.0000 C   0  0  0  0  0  0  0  0  0  0  0  0
    2.8579   -4.9500    0.0000 O   0  0  0  0  0  0  0  0  0  0  0  0
    3.5724   -5.3625    0.0000 C   0  0  0  0  0  0  0  0  0  0  0  0
    4.2868   -4.9500    0.0000 C   0  0  0  0  0  0  0  0  0  0  0  0
    5.0013   -5.3625    0.0000 C   0  0  0  0  0  0  0  0  0  0  0  0
    5.7158   -4.9500    0.0000 C   0  0  0  0  0  0  0  0  0  0  0  0
    6.4302   -5.3625    0.0000 C   0  0  0  0  0  0  0  0  0  0  0  0
    7.1447   -4.9500    0.0000 O   0  0  0  0  0  0  0  0  0  0  0  0
    7.8592   -5.3625    0.0000 C   0  0  0  0  0  0  0  0  0  0  0  0
    8.5737   -4.9500    0.0000 C   0  0  0  0  0  0  0  0  0  0  0  0
    9.2881   -5.3625    0.0000 C   0  0  0  0  0  0  0  0  0  0  0  0
    9.2881   -6.1875    0.0000 C   0  0  0  0  0  0  0  0  0  0  0  0
    8.5737   -6.6000    0.0000 C   0  0  0  0  0  0  0  0  0  0  0  0
    7.8592   -6.1875    0.0000 C   0  0  0  0  0  0  0  0  0  0  0  0
   10.0026   -6.6000    0.0000 C   0  0  0  0  0  0  0  0  0  0  0  0
   10.7171   -6.1875    0.0000 N   0  0  0  0  0  0  0  0  0  0  0  0
   10.0026   -7.4250    0.0000 N   0  0  0  0  0  0  0  0  0  0  0  0
    2.1434   -6.1875    0.0000 C   0  0  0  0  0  0  0  0  0  0  0  0
    1.4289   -6.6000    0.0000 C   0  0  0  0  0  0  0  0  0  0  0  0
  1  2  1  0  0  0  0
  2  3  2  0  0  0  0
  2  4  1  0  0  0  0
  4  5  2  0  0  0  0
  5  6  1  0  0  0  0
  6  7  2  0  0  0  0
  7  8  1  0  0  0  0
  8  9  1  0  0  0  0
  9 10  1  0  0  0  0
 10 11  1  0  0  0  0
 11 12  1  0  0  0  0
 12 13  1  0  0  0  0
 13 14  1  0  0  0  0
 14 15  1  0  0  0  0
 15 16  2  0  0  0  0
 16 17  1  0  0  0  0
 17 18  2  0  0  0  0
 18 19  1  0  0  0  0
 19 20  2  0  0  0  0
 15 20  1  0  0  0  0
 18 21  1  0  0  0  0
 21 22  2  0  0  0  0
 21 23  1  0  0  0  0
  7 24  1  0  0  0  0
 24 25  2  0  0  0  0
  4 25  1  0  0  0  0
M  END
> <COMPOUND_ID>
MMV000062

$$$$

  Mrv0541 04191616472D          

 23 26  0  0  0  0            999 V2000
    3.6020    2.5559    0.0000 O   0  0  0  0  0  0  0  0  0  0  0  0
    4.0145    1.8414    0.0000 C   0  0  0  0  0  0  0  0  0  0  0  0
    4.8395    1.8414    0.0000 C   0  0  0  0  0  0  0  0  0  0  0  0
    5.2520    2.5559    0.0000 C   0  0  0  0  0  0  0  0  0  0  0  0
    6.0770    2.5559    0.0000 C   0  0  0  0  0  0  0  0  0  0  0  0
    6.4895    1.8414    0.0000 C   0  0  0  0  0  0  0  0  0  0  0  0
    6.0770    1.1270    0.0000 C   0  0  0  0  0  0  0  0  0  0  0  0
    5.2520    1.1270    0.0000 C   0  0  0  0  0  0  0  0  0  0  0  0
    3.6020    1.1270    0.0000 N   0  0  0  0  0  0  0  0  0  0  0  0
    2.7770    1.1270    0.0000 C   0  0  0  0  0  0  0  0  0  0  0  0
    2.3645    0.4125    0.0000 C   0  0  0  0  0  0  0  0  0  0  0  0
    2.7770   -0.3020    0.0000 N   0  0  0  0  0  0  0  0  0  0  0  0
    2.3645   -1.0164    0.0000 C   0  0  0  0  0  0  0  0  0  0  0  0
    1.5395   -1.0164    0.0000 C   0  0  0  0  0  0  0  0  0  0  0  0
    1.1270   -0.3020    0.0000 C   0  0  0  0  0  0  0  0  0  0  0  0
    0.3020   -0.3020    0.0000 C   0  0  0  0  0  0  0  0  0  0  0  0
   -0.1105    0.4125    0.0000 C   0  0  0  0  0  0  0  0  0  0  0  0
    0.3020    1.1270    0.0000 C   0  0  0  0  0  0  0  0  0  0  0  0
    1.1270    1.1270    0.0000 C   0  0  0  0  0  0  0  0  0  0  0  0
    1.5395    0.4125    0.0000 C   0  0  0  0  0  0  0  0  0  0  0  0
    3.6020   -0.3020    0.0000 C   0  0  0  0  0  0  0  0  0  0  0  0
    4.0145   -1.0164    0.0000 O   0  0  0  0  0  0  0  0  0  0  0  0
    4.0145    0.4125    0.0000 C   0  0  0  0  0  0  0  0  0  0  0  0
  1  2  2  0  0  0  0
  2  3  1  0  0  0  0
  3  4  1  0  0  0  0
  4  5  1  0  0  0  0
  5  6  1  0  0  0  0
  6  7  1  0  0  0  0
  7  8  1  0  0  0  0
  3  8  1  0  0  0  0
  2  9  1  0  0  0  0
  9 10  1  0  0  0  0
 10 11  1  0  0  0  0
 11 12  1  0  0  0  0
 12 13  1  0  0  0  0
 13 14  1  0  0  0  0
 14 15  1  0  0  0  0
 15 16  2  0  0  0  0
 16 17  1  0  0  0  0
 17 18  2  0  0  0  0
 18 19  1  0  0  0  0
 19 20  2  0  0  0  0
 11 20  1  0  0  0  0
 15 20  1  0  0  0  0
 12 21  1  0  0  0  0
 21 22  2  0  0  0  0
 21 23  1  0  0  0  0
  9 23  1  0  0  0  0
M  END
> <COMPOUND_ID>
MMV002529

$$$$

  Mrv0541 04191616472D          

 33 37  0  0  0  0            999 V2000
    0.0000   -0.0000    0.0000 C   0  0  0  0  0  0  0  0  0  0  0  0
    0.7145   -0.4125    0.0000 C   0  0  0  0  0  0  0  0  0  0  0  0
    1.4289    0.0000    0.0000 C   0  0  0  0  0  0  0  0  0  0  0  0
    0.7145   -1.2375    0.0000 N   0  0  0  0  0  0  0  0  0  0  0  0
    1.4289   -1.6500    0.0000 C   0  0  0  0  0  0  0  0  0  0  0  0
    2.1434   -1.2375    0.0000 C   0  0  0  0  0  0  0  0  0  0  0  0
    2.8579   -1.6500    0.0000 C   0  0  0  0  0  0  0  0  0  0  0  0
    3.5724   -1.2375    0.0000 N   0  0  0  0  0  0  0  0  0  0  0  0
    3.5724   -0.4125    0.0000 C   0  0  0  0  0  0  0  0  0  0  0  0
    2.8579    0.0000    0.0000 C   0  0  0  0  0  0  0  0  0  0  0  0
    2.8579    0.8250    0.0000 C   0  0  0  0  0  0  0  0  0  0  0  0
    3.5724    1.2375    0.0000 C   0  0  0  0  0  0  0  0  0  0  0  0
    3.5724    2.0625    0.0000 Cl  0  0  0  0  0  0  0  0  0  0  0  0
    4.2868    0.8250    0.0000 C   0  0  0  0  0  0  0  0  0  0  0  0
    4.2868    0.0000    0.0000 C   0  0  0  0  0  0  0  0  0  0  0  0
    4.2868   -1.6500    0.0000 C   0  0  0  0  0  0  0  0  0  0  0  0
    5.0013   -1.2375    0.0000 C   0  0  0  0  0  0  0  0  0  0  0  0
    5.7158   -1.6500    0.0000 C   0  0  0  0  0  0  0  0  0  0  0  0
    5.7158   -2.4750    0.0000 C   0  0  0  0  0  0  0  0  0  0  0  0
    5.0013   -2.8875    0.0000 C   0  0  0  0  0  0  0  0  0  0  0  0
    4.2868   -2.4750    0.0000 C   0  0  0  0  0  0  0  0  0  0  0  0
    3.5724   -2.8875    0.0000 N   0  0  0  0  0  0  0  0  0  0  0  0
    2.8579   -2.4750    0.0000 C   0  0  0  0  0  0  0  0  0  0  0  0
    2.1434   -2.8875    0.0000 C   0  0  0  0  0  0  0  0  0  0  0  0
    1.4289   -2.4750    0.0000 C   0  0  0  0  0  0  0  0  0  0  0  0
    0.7145   -2.8875    0.0000 N   0  0  0  0  0  0  0  0  0  0  0  0
    0.0000   -2.4750    0.0000 C   0  0  0  0  0  0  0  0  0  0  0  0
   -0.7145   -2.8875    0.0000 C   0  0  0  0  0  0  0  0  0  0  0  0
   -1.4289   -2.4750    0.0000 C   0  0  0  0  0  0  0  0  0  0  0  0
   -1.4289   -1.6500    0.0000 C   0  0  0  0  0  0  0  0  0  0  0  0
   -2.1434   -1.2375    0.0000 Cl  0  0  0  0  0  0  0  0  0  0  0  0
   -0.7145   -1.2375    0.0000 C   0  0  0  0  0  0  0  0  0  0  0  0
    0.0000   -1.6500    0.0000 C   0  0  0  0  0  0  0  0  0  0  0  0
  1  2  1  0  0  0  0
  2  3  1  0  0  0  0
  4  2  1  4  0  0  0
  4  5  2  0  0  0  0
  5  6  1  0  0  0  0
  6  7  2  0  0  0  0
  7  8  1  0  0  0  0
  8  9  1  0  0  0  0
  9 10  2  0  0  0  0
 10 11  1  0  0  0  0
 11 12  2  0  0  0  0
 12 13  1  0  0  0  0
 12 14  1  0  0  0  0
 14 15  2  0  0  0  0
  9 15  1  0  0  0  0
  8 16  1  0  0  0  0
 16 17  2  0  0  0  0
 17 18  1  0  0  0  0
 18 19  2  0  0  0  0
 19 20  1  0  0  0  0
 20 21  2  0  0  0  0
 16 21  1  0  0  0  0
 21 22  1  0  0  0  0
 22 23  2  0  0  0  0
  7 23  1  0  0  0  0
 23 24  1  0  0  0  0
 24 25  2  0  0  0  0
  5 25  1  0  0  0  0
 25 26  1  0  0  0  0
 26 27  1  0  0  0  0
 27 28  2  0  0  0  0
 28 29  1  0  0  0  0
 29 30  2  0  0  0  0
 30 31  1  0  0  0  0
 30 32  1  0  0  0  0
 32 33  2  0  0  0  0
 27 33  1  0  0  0  0
M  END
> <COMPOUND_ID>
MMV687800

$$$$

  Mrv0541 04191616472D          

 12 11  0  0  0  0            999 V2000
   -0.1914   -3.1895    0.0000 N   0  0  0  0  0  0  0  0  0  0  0  0
   -0.1914   -2.3645    0.0000 C   0  0  0  0  0  0  0  0  0  0  0  0
    0.5230   -1.9520    0.0000 C   0  0  0  0  0  0  0  0  0  0  0  0
    0.5230   -1.1270    0.0000 C   0  0  0  0  0  0  0  0  0  0  0  0
    1.2375   -0.7145    0.0000 C   0  0  0  0  0  0  0  0  0  0  0  0
    1.6500   -1.4289    0.0000 N   0  0  0  0  0  0  0  0  0  0  0  0
    1.9520   -0.3020    0.0000 C   0  0  0  0  0  0  0  0  0  0  0  0
    1.9520    0.5230    0.0000 F   0  0  0  0  0  0  0  0  0  0  0  0
    2.6664   -0.7145    0.0000 F   0  0  0  0  0  0  0  0  0  0  0  0
    0.8250    0.0000    0.0000 C   0  0  0  0  0  0  0  0  0  0  0  0
    1.2375    0.7145    0.0000 O   0  0  0  0  0  0  0  0  0  0  0  0
    0.0000    0.0000    0.0000 O   0  0  0  0  0  0  0  0  0  0  0  0
  1  2  1  0  0  0  0
  2  3  1  0  0  0  0
  3  4  1  0  0  0  0
  4  5  1  0  0  0  0
  5  6  1  0  0  0  0
  5  7  1  0  0  0  0
  7  8  1  0  0  0  0
  7  9  1  0  0  0  0
  5 10  1  0  0  0  0
 10 11  2  0  0  0  0
 10 12  1  0  0  0  0
M  END
> <COMPOUND_ID>
MMV001625

$$$$

  Mrv0541 04191616472D          

 86 93  0  0  0  0            999 V2000
   -2.1434   -1.2375    0.0000 C   0  0  0  0  0  0  0  0  0  0  0  0
   -1.4289   -1.6500    0.0000 C   0  0  0  0  0  0  0  0  0  0  0  0
   -0.7145   -1.2375    0.0000 C   0  0  0  0  0  0  0  0  0  0  0  0
    0.0000   -1.6500    0.0000 C   0  0  0  0  0  0  0  0  0  0  0  0
    0.0000   -2.4750    0.0000 C   0  0  0  0  0  0  0  0  0  0  0  0
   -0.7145   -2.8875    0.0000 C   0  0  0  0  0  0  0  0  0  0  0  0
   -1.4289   -2.4750    0.0000 C   0  0  0  0  0  0  0  0  0  0  0  0
   -2.1434   -2.8875    0.0000 N   0  0  0  0  0  0  0  0  0  0  0  0
   -2.8579   -2.4750    0.0000 C   0  0  0  0  0  0  0  0  0  0  0  0
   -2.8579   -1.6500    0.0000 O   0  0  0  0  0  0  0  0  0  0  0  0
   -3.5724   -2.8875    0.0000 C   0  0  0  0  0  0  0  0  0  0  0  0
   -3.5724   -3.7125    0.0000 C   0  0  0  0  0  0  0  0  0  0  0  0
   -4.2868   -4.1250    0.0000 C   0  0  0  0  0  0  0  0  0  0  0  0
   -5.0013   -3.7125    0.0000 C   0  0  0  0  0  0  0  0  0  0  0  0
   -5.0013   -2.8875    0.0000 C   0  0  0  0  0  0  0  0  0  0  0  0
   -5.7158   -2.4750    0.0000 N   0  0  0  0  0  0  0  0  0  0  0  0
   -6.4302   -2.8875    0.0000 C   0  0  0  0  0  0  0  0  0  0  0  0
   -6.4302   -3.7125    0.0000 O   0  0  0  0  0  0  0  0  0  0  0  0
   -7.1447   -2.4750    0.0000 N   0  0  0  0  0  0  0  0  0  0  0  0
   -7.8592   -2.8875    0.0000 C   0  0  0  0  0  0  0  0  0  0  0  0
   -7.8592   -3.7125    0.0000 C   0  0  0  0  0  0  0  0  0  0  0  0
   -8.5737   -4.1250    0.0000 C   0  0  0  0  0  0  0  0  0  0  0  0
   -9.2881   -3.7125    0.0000 C   0  0  0  0  0  0  0  0  0  0  0  0
   -9.2881   -2.8875    0.0000 C   0  0  0  0  0  0  0  0  0  0  0  0
   -8.5737   -2.4750    0.0000 C   0  0  0  0  0  0  0  0  0  0  0  0
  -10.0026   -2.4750    0.0000 C   0  0  0  0  0  0  0  0  0  0  0  0
  -10.0026   -1.6500    0.0000 O   0  0  0  0  0  0  0  0  0  0  0  0
  -10.7171   -2.8875    0.0000 N   0  0  0  0  0  0  0  0  0  0  0  0
  -11.4315   -2.4750    0.0000 C   0  0  0  0  0  0  0  0  0  0  0  0
  -12.1460   -2.8875    0.0000 C   0  0  0  0  0  0  0  0  0  0  0  0
  -12.8605   -2.4750    0.0000 C   0  0  0  0  0  0  0  0  0  0  0  0
  -12.8605   -1.6500    0.0000 C   0  0  0  0  0  0  0  0  0  0  0  0
  -12.1460   -1.2375    0.0000 C   0  0  0  0  0  0  0  0  0  0  0  0
  -11.4315   -1.6500    0.0000 C   0  0  0  0  0  0  0  0  0  0  0  0
  -10.7171   -1.2375    0.0000 C   0  0  0  0  0  0  0  0  0  0  0  0
  -13.5749   -2.8875    0.0000 C   0  0  0  0  0  0  0  0  0  0  0  0
  -13.5749   -3.7125    0.0000 O   0  0  0  0  0  0  0  0  0  0  0  0
  -14.2894   -2.4750    0.0000 N   0  0  0  0  0  0  0  0  0  0  0  0
  -15.0039   -2.8875    0.0000 C   0  0  0  0  0  0  0  0  0  0  0  0
  -15.0039   -3.7125    0.0000 C   0  0  0  0  0  0  0  0  0  0  0  0
  -15.7184   -4.1250    0.0000 C   0  0  0  0  0  0  0  0  0  0  0  0
  -16.4328   -3.7125    0.0000 C   0  0  0  0  0  0  0  0  0  0  0  0
  -16.4328   -2.8875    0.0000 C   0  0  0  0  0  0  0  0  0  0  0  0
  -17.1473   -2.4750    0.0000 C   0  0  0  0  0  0  0  0  0  0  0  0
  -17.1473   -1.6500    0.0000 C   0  0  0  0  0  0  0  0  0  0  0  0
  -16.4328   -1.2375    0.0000 C   0  0  0  0  0  0  0  0  0  0  0  0
  -15.7184   -1.6500    0.0000 C   0  0  0  0  0  0  0  0  0  0  0  0
  -15.7184   -2.4750    0.0000 C   0  0  0  0  0  0  0  0  0  0  0  0
  -15.0039   -1.2375    0.0000 S   0  0  0  0  0  0  0  0  0  0  0  0
  -14.2894   -0.8250    0.0000 O   0  0  0  0  0  0  0  0  0  0  0  0
  -14.5914   -1.9520    0.0000 O   0  0  0  0  0  0  0  0  0  0  0  0
  -15.4164   -0.5230    0.0000 O   0  0  0  0  0  0  0  0  0  0  0  0
  -17.8618   -1.2375    0.0000 S   0  0  0  0  0  0  0  0  0  0  0  0
  -18.5762   -0.8250    0.0000 O   0  0  0  0  0  0  0  0  0  0  0  0
  -18.2743   -1.9520    0.0000 O   0  0  0  0  0  0  0  0  0  0  0  0
  -17.4493   -0.5230    0.0000 O   0  0  0  0  0  0  0  0  0  0  0  0
  -17.1473   -4.1250    0.0000 S   0  0  0  0  0  0  0  0  0  0  0  0
  -17.8618   -4.5375    0.0000 O   0  0  0  0  0  0  0  0  0  0  0  0
  -17.5598   -3.4105    0.0000 O   0  0  0  0  0  0  0  0  0  0  0  0
  -16.7348   -4.8395    0.0000 O   0  0  0  0  0  0  0  0  0  0  0  0
   -4.2868   -2.4750    0.0000 C   0  0  0  0  0  0  0  0  0  0  0  0
    0.7145   -2.8875    0.0000 C   0  0  0  0  0  0  0  0  0  0  0  0
    0.7145   -3.7125    0.0000 O   0  0  0  0  0  0  0  0  0  0  0  0
    1.4289   -2.4750    0.0000 N   0  0  0  0  0  0  0  0  0  0  0  0
    1.4289   -1.6500    0.0000 C   0  0  0  0  0  0  0  0  0  0  0  0
    0.7145   -1.2375    0.0000 C   0  0  0  0  0  0  0  0  0  0  0  0
    0.7145   -0.4125    0.0000 C   0  0  0  0  0  0  0  0  0  0  0  0
    1.4289    0.0000    0.0000 C   0  0  0  0  0  0  0  0  0  0  0  0
    2.1434   -0.4125    0.0000 C   0  0  0  0  0  0  0  0  0  0  0  0
    2.8579    0.0000    0.0000 C   0  0  0  0  0  0  0  0  0  0  0  0
    3.5724   -0.4125    0.0000 C   0  0  0  0  0  0  0  0  0  0  0  0
    3.5724   -1.2375    0.0000 C   0  0  0  0  0  0  0  0  0  0  0  0
    2.8579   -1.6500    0.0000 C   0  0  0  0  0  0  0  0  0  0  0  0
    2.1434   -1.2375    0.0000 C   0  0  0  0  0  0  0  0  0  0  0  0
    2.8579   -2.4750    0.0000 S   0  0  0  0  0  0  0  0  0  0  0  0
    2.8579   -3.3000    0.0000 O   0  0  0  0  0  0  0  0  0  0  0  0
    2.0329   -2.4750    0.0000 O   0  0  0  0  0  0  0  0  0  0  0  0
    3.6829   -2.4750    0.0000 O   0  0  0  0  0  0  0  0  0  0  0  0
    4.2868   -0.0000    0.0000 S   0  0  0  0  0  0  0  0  0  0  0  0
    5.0013    0.4125    0.0000 O   0  0  0  0  0  0  0  0  0  0  0  0
    4.6993   -0.7145    0.0000 O   0  0  0  0  0  0  0  0  0  0  0  0
    3.8743    0.7145    0.0000 O   0  0  0  0  0  0  0  0  0  0  0  0
    1.4289    0.8250    0.0000 S   0  0  0  0  0  0  0  0  0  0  0  0
    1.4289    1.6500    0.0000 O   0  0  0  0  0  0  0  0  0  0  0  0
    2.2539    0.8250    0.0000 O   0  0  0  0  0  0  0  0  0  0  0  0
    0.6039    0.8250    0.0000 O   0  0  0  0  0  0  0  0  0  0  0  0
  1  2  1  0  0  0  0
  2  3  2  0  0  0  0
  3  4  1  0  0  0  0
  4  5  2  0  0  0  0
  5  6  1  0  0  0  0
  6  7  2  0  0  0  0
  2  7  1  0  0  0  0
  7  8  1  0  0  0  0
  8  9  1  0  0  0  0
  9 10  2  0  0  0  0
  9 11  1  0  0  0  0
 11 12  2  0  0  0  0
 12 13  1  0  0  0  0
 13 14  2  0  0  0  0
 14 15  1  0  0  0  0
 15 16  1  0  0  0  0
 16 17  1  0  0  0  0
 17 18  2  0  0  0  0
 17 19  1  0  0  0  0
 19 20  1  0  0  0  0
 20 21  2  0  0  0  0
 21 22  1  0  0  0  0
 22 23  2  0  0  0  0
 23 24  1  0  0  0  0
 24 25  2  0  0  0  0
 20 25  1  0  0  0  0
 24 26  1  0  0  0  0
 26 27  2  0  0  0  0
 26 28  1  0  0  0  0
 28 29  1  0  0  0  0
 29 30  2  0  0  0  0
 30 31  1  0  0  0  0
 31 32  2  0  0  0  0
 32 33  1  0  0  0  0
 33 34  2  0  0  0  0
 29 34  1  0  0  0  0
 34 35  1  0  0  0  0
 31 36  1  0  0  0  0
 36 37  2  0  0  0  0
 36 38  1  0  0  0  0
 38 39  1  0  0  0  0
 39 40  1  0  0  0  0
 40 41  2  0  0  0  0
 41 42  1  0  0  0  0
 42 43  2  0  0  0  0
 43 44  1  0  0  0  0
 44 45  2  0  0  0  0
 45 46  1  0  0  0  0
 46 47  2  0  0  0  0
 47 48  1  0  0  0  0
 39 48  2  0  0  0  0
 43 48  1  0  0  0  0
 47 49  1  0  0  0  0
 49 50  2  0  0  0  0
 49 51  2  0  0  0  0
 49 52  1  0  0  0  0
 45 53  1  0  0  0  0
 53 54  2  0  0  0  0
 53 55  2  0  0  0  0
 53 56  1  0  0  0  0
 42 57  1  0  0  0  0
 57 58  2  0  0  0  0
 57 59  2  0  0  0  0
 57 60  1  0  0  0  0
 15 61  2  0  0  0  0
 11 61  1  0  0  0  0
  5 62  1  0  0  0  0
 62 63  2  0  0  0  0
 62 64  1  0  0  0  0
 64 65  1  0  0  0  0
 65 66  1  0  0  0  0
 66 67  2  0  0  0  0
 67 68  1  0  0  0  0
 68 69  2  0  0  0  0
 69 70  1  0  0  0  0
 70 71  2  0  0  0  0
 71 72  1  0  0  0  0
 72 73  2  0  0  0  0
 73 74  1  0  0  0  0
 65 74  2  0  0  0  0
 69 74  1  0  0  0  0
 73 75  1  0  0  0  0
 75 76  2  0  0  0  0
 75 77  2  0  0  0  0
 75 78  1  0  0  0  0
 71 79  1  0  0  0  0
 79 80  2  0  0  0  0
 79 81  2  0  0  0  0
 79 82  1  0  0  0  0
 68 83  1  0  0  0  0
 83 84  2  0  0  0  0
 83 85  2  0  0  0  0
 83 86  1  0  0  0  0
M  END
> <COMPOUND_ID>
MMV637953

$$$$

  Mrv0541 04191616472D          

 25 26  0  0  0  0            999 V2000
    3.0979    6.0941    0.0000 C   0  0  0  0  0  0  0  0  0  0  0  0
    3.8905    6.3229    0.0000 C   0  0  0  0  0  0  0  0  0  0  0  0
    4.4850    5.7508    0.0000 N   0  0  0  0  0  0  0  0  0  0  0  0
    4.2868    4.9500    0.0000 C   0  0  0  0  0  0  0  0  0  0  0  0
    3.4942    4.7212    0.0000 C   0  0  0  0  0  0  0  0  0  0  0  0
    5.2776    5.9797    0.0000 C   0  0  0  0  0  0  0  0  0  0  0  0
    5.8721    5.4076    0.0000 C   0  0  0  0  0  0  0  0  0  0  0  0
    6.6647    5.6364    0.0000 C   0  0  0  0  0  0  0  0  0  0  0  0
    7.2592    5.0644    0.0000 C   0  0  0  0  0  0  0  0  0  0  0  0
    8.0518    5.2932    0.0000 C   0  0  0  0  0  0  0  0  0  0  0  0
    8.6463    4.7212    0.0000 C   0  0  0  0  0  0  0  0  0  0  0  0
    9.4389    4.9500    0.0000 N   0  0  0  0  0  0  0  0  0  0  0  0
   10.0334    4.3780    0.0000 C   0  0  0  0  0  0  0  0  0  0  0  0
   10.8261    4.6068    0.0000 C   0  0  0  0  0  0  0  0  0  0  0  0
   11.4205    4.0347    0.0000 C   0  0  0  0  0  0  0  0  0  0  0  0
   12.2132    4.2636    0.0000 O   0  0  0  0  0  0  0  0  0  0  0  0
   12.4113    5.0644    0.0000 C   0  0  0  0  0  0  0  0  0  0  0  0
   11.2224    3.2339    0.0000 C   0  0  0  0  0  0  0  0  0  0  0  0
   10.4297    3.0051    0.0000 C   0  0  0  0  0  0  0  0  0  0  0  0
   10.2316    2.2042    0.0000 C   0  0  0  0  0  0  0  0  0  0  0  0
   10.8261    1.6322    0.0000 C   0  0  0  0  0  0  0  0  0  0  0  0
    9.4389    1.9754    0.0000 C   0  0  0  0  0  0  0  0  0  0  0  0
    8.8445    2.5475    0.0000 C   0  0  0  0  0  0  0  0  0  0  0  0
    9.0426    3.3483    0.0000 N   0  0  0  0  0  0  0  0  0  0  0  0
    9.8353    3.5771    0.0000 C   0  0  0  0  0  0  0  0  0  0  0  0
  1  2  1  0  0  0  0
  2  3  1  0  0  0  0
  3  4  1  0  0  0  0
  4  5  1  0  0  0  0
  3  6  1  0  0  0  0
  6  7  1  0  0  0  0
  7  8  1  0  0  0  0
  8  9  1  0  0  0  0
  9 10  1  0  0  0  0
 10 11  1  0  0  0  0
 11 12  1  0  0  0  0
 12 13  1  0  0  0  0
 13 14  1  0  0  0  0
 14 15  2  0  0  0  0
 15 16  1  0  0  0  0
 16 17  1  0  0  0  0
 15 18  1  0  0  0  0
 18 19  2  0  0  0  0
 19 20  1  0  0  0  0
 20 21  1  0  0  0  0
 20 22  2  0  0  0  0
 22 23  1  0  0  0  0
 23 24  2  0  0  0  0
 24 25  1  0  0  0  0
 13 25  2  0  0  0  0
 19 25  1  0  0  0  0
M  END
> <COMPOUND_ID>
MMV000063

$$$$

  Mrv0541 04191616472D          

 19 20  0  0  0  0            999 V2000
   -1.7098   -3.8725    0.0000 O   0  5  0  0  0  0  0  0  0  0  0  0
   -0.9252   -3.6175    0.0000 N   0  3  0  0  0  0  0  0  0  0  0  0
   -0.3121   -4.1696    0.0000 O   0  0  0  0  0  0  0  0  0  0  0  0
   -0.7537   -2.8106    0.0000 C   0  0  0  0  0  0  0  0  0  0  0  0
   -1.3057   -2.1975    0.0000 N   0  0  0  0  0  0  0  0  0  0  0  0
   -0.8932   -1.4830    0.0000 C   0  0  0  0  0  0  0  0  0  0  0  0
   -0.0862   -1.6545    0.0000 C   0  0  0  0  0  0  0  0  0  0  0  0
    0.0000   -2.4750    0.0000 N   0  0  0  0  0  0  0  0  0  0  0  0
    0.7145   -2.8875    0.0000 C   0  0  0  0  0  0  0  0  0  0  0  0
    1.4289   -2.4750    0.0000 C   0  0  0  0  0  0  0  0  0  0  0  0
    1.4289   -1.6500    0.0000 O   0  0  0  0  0  0  0  0  0  0  0  0
    2.1434   -2.8875    0.0000 N   0  0  0  0  0  0  0  0  0  0  0  0
    2.8579   -2.4750    0.0000 C   0  0  0  0  0  0  0  0  0  0  0  0
    3.5724   -2.8875    0.0000 C   0  0  0  0  0  0  0  0  0  0  0  0
    4.2868   -2.4750    0.0000 C   0  0  0  0  0  0  0  0  0  0  0  0
    5.0013   -2.8875    0.0000 C   0  0  0  0  0  0  0  0  0  0  0  0
    5.0013   -3.7125    0.0000 C   0  0  0  0  0  0  0  0  0  0  0  0
    4.2868   -4.1250    0.0000 C   0  0  0  0  0  0  0  0  0  0  0  0
    3.5724   -3.7125    0.0000 C   0  0  0  0  0  0  0  0  0  0  0  0
  1  2  1  0  0  0  0
  2  3  2  0  0  0  0
  2  4  1  0  0  0  0
  4  5  2  0  0  0  0
  5  6  1  0  0  0  0
  6  7  2  0  0  0  0
  7  8  1  0  0  0  0
  4  8  1  0  0  0  0
  8  9  1  0  0  0  0
  9 10  1  0  0  0  0
 10 11  2  0  0  0  0
 10 12  1  0  0  0  0
 12 13  1  0  0  0  0
 13 14  1  0  0  0  0
 14 15  2  0  0  0  0
 15 16  1  0  0  0  0
 16 17  2  0  0  0  0
 17 18  1  0  0  0  0
 18 19  2  0  0  0  0
 14 19  1  0  0  0  0
M  CHG  2   1  -1   2   1
M  END
> <COMPOUND_ID>
MMV688773

$$$$

  Mrv0541 04191616472D          

 32 35  0  0  1  0            999 V2000
    2.1434    2.0625    0.0000 C   0  0  0  0  0  0  0  0  0  0  0  0
    2.1434    1.2375    0.0000 C   0  0  2  0  0  0  0  0  0  0  0  0
    2.8579    0.8250    0.0000 C   0  0  1  0  0  0  0  0  0  0  0  0
    3.5724    1.2375    0.0000 C   0  0  2  0  0  0  0  0  0  0  0  0
    3.5724    2.0625    0.0000 O   0  0  0  0  0  0  0  0  0  0  0  0
    4.2868    0.8250    0.0000 C   0  0  1  0  0  0  0  0  0  0  0  0
    5.0013    1.2375    0.0000 C   0  0  2  0  0  0  0  0  0  0  0  0
    5.0013    2.0625    0.0000 N   0  0  0  0  0  0  0  0  0  0  0  0
    5.7158    2.4750    0.0000 C   0  0  0  0  0  0  0  0  0  0  0  0
    4.2868    2.4750    0.0000 C   0  0  0  0  0  0  0  0  0  0  0  0
    5.7158    0.8250    0.0000 C   0  0  0  0  0  0  0  0  0  0  0  0
    5.7158   -0.0000    0.0000 C   0  0  0  0  0  0  0  0  0  0  0  0
    6.4302   -0.4125    0.0000 C   0  0  0  0  0  0  0  0  0  0  0  0
    7.1447   -0.0000    0.0000 O   0  0  0  0  0  0  0  0  0  0  0  0
    6.4302   -1.2375    0.0000 N   0  0  0  0  0  0  0  0  0  0  0  0
    5.0013   -0.4125    0.0000 C   0  0  0  0  0  0  0  0  0  0  0  0
    5.0013   -1.2375    0.0000 O   0  0  0  0  0  0  0  0  0  0  0  0
    4.2868    0.0000    0.0000 C   0  0  2  0  0  0  0  0  0  0  0  0
    4.2868   -0.8250    0.0000 O   0  0  0  0  0  0  0  0  0  0  0  0
    3.5724   -0.4125    0.0000 C   0  0  0  0  0  0  0  0  0  0  0  0
    2.8579    0.0000    0.0000 C   0  0  0  0  0  0  0  0  0  0  0  0
    2.1434   -0.4125    0.0000 C   0  0  0  0  0  0  0  0  0  0  0  0
    2.1434   -1.2375    0.0000 O   0  0  0  0  0  0  0  0  0  0  0  0
    1.4289    0.0000    0.0000 C   0  0  0  0  0  0  0  0  0  0  0  0
    0.7145   -0.4125    0.0000 C   0  0  0  0  0  0  0  0  0  0  0  0
    0.7145   -1.2375    0.0000 O   0  0  0  0  0  0  0  0  0  0  0  0
    0.0000   -0.0000    0.0000 C   0  0  0  0  0  0  0  0  0  0  0  0
    0.0000    0.8250    0.0000 C   0  0  0  0  0  0  0  0  0  0  0  0
    0.7145    1.2375    0.0000 C   0  0  0  0  0  0  0  0  0  0  0  0
    1.4289    0.8250    0.0000 C   0  0  0  0  0  0  0  0  0  0  0  0
    3.5724   -1.2375    0.0000 O   0  0  0  0  0  0  0  0  0  0  0  0
    6.4302    1.2375    0.0000 O   0  0  0  0  0  0  0  0  0  0  0  0
  2  1  1  6  0  0  0
  2  3  1  0  0  0  0
  3  4  1  0  0  0  0
  4  5  1  6  0  0  0
  4  6  1  0  0  0  0
  6  7  1  0  0  0  0
  7  8  1  6  0  0  0
  8  9  1  0  0  0  0
  8 10  1  0  0  0  0
  7 11  1  0  0  0  0
 11 12  2  0  0  0  0
 12 13  1  0  0  0  0
 13 14  2  0  0  0  0
 13 15  1  0  0  0  0
 12 16  1  0  0  0  0
 16 17  2  0  0  0  0
 16 18  1  0  0  0  0
  6 18  1  1  0  0  0
 18 19  1  6  0  0  0
 18 20  1  0  0  0  0
 20 21  2  0  0  0  0
  3 21  1  1  0  0  0
 21 22  1  0  0  0  0
 22 23  2  0  0  0  0
 22 24  1  0  0  0  0
 24 25  2  0  0  0  0
 25 26  1  0  0  0  0
 25 27  1  0  0  0  0
 27 28  2  0  0  0  0
 28 29  1  0  0  0  0
 29 30  2  0  0  0  0
  2 30  1  0  0  0  0
 24 30  1  0  0  0  0
 20 31  1  0  0  0  0
 11 32  1  0  0  0  0
M  END
> <COMPOUND_ID>
MMV000011

$$$$

  Mrv0541 04191616472D          

 51 57  0  0  1  0            999 V2000
   12.4031   -1.9580    0.0000 C   0  0  0  0  0  0  0  0  0  0  0  0
   12.4031   -2.7830    0.0000 C   0  0  0  0  0  0  0  0  0  0  0  0
   11.6886   -3.1955    0.0000 C   0  0  1  0  0  0  0  0  0  0  0  0
   10.9741   -2.7830    0.0000 C   0  0  2  0  0  0  0  0  0  0  0  0
   10.2596   -3.1955    0.0000 C   0  0  0  0  0  0  0  0  0  0  0  0
   10.9741   -1.9580    0.0000 O   0  0  0  0  0  0  0  0  0  0  0  0
   11.6886   -4.0205    0.0000 N   0  0  0  0  0  0  0  0  0  0  0  0
   12.3560   -4.5054    0.0000 N   0  0  0  0  0  0  0  0  0  0  0  0
   12.1011   -5.2900    0.0000 C   0  0  0  0  0  0  0  0  0  0  0  0
   11.2761   -5.2900    0.0000 N   0  0  0  0  0  0  0  0  0  0  0  0
   11.0211   -4.5054    0.0000 C   0  0  0  0  0  0  0  0  0  0  0  0
   10.2365   -4.2505    0.0000 O   0  0  0  0  0  0  0  0  0  0  0  0
   10.7912   -5.9575    0.0000 C   0  0  0  0  0  0  0  0  0  0  0  0
   11.1267   -6.7111    0.0000 C   0  0  0  0  0  0  0  0  0  0  0  0
   10.6418   -7.3786    0.0000 C   0  0  0  0  0  0  0  0  0  0  0  0
    9.8213   -7.2923    0.0000 C   0  0  0  0  0  0  0  0  0  0  0  0
    9.4858   -6.5387    0.0000 C   0  0  0  0  0  0  0  0  0  0  0  0
    9.9707   -5.8712    0.0000 C   0  0  0  0  0  0  0  0  0  0  0  0
    9.3364   -7.9598    0.0000 N   0  0  0  0  0  0  0  0  0  0  0  0
    9.6720   -8.7135    0.0000 C   0  0  0  0  0  0  0  0  0  0  0  0
    9.1870   -9.3809    0.0000 C   0  0  0  0  0  0  0  0  0  0  0  0
    8.3666   -9.2947    0.0000 N   0  0  0  0  0  0  0  0  0  0  0  0
    8.0310   -8.5410    0.0000 C   0  0  0  0  0  0  0  0  0  0  0  0
    8.5159   -7.8735    0.0000 C   0  0  0  0  0  0  0  0  0  0  0  0
    7.8816   -9.9621    0.0000 C   0  0  0  0  0  0  0  0  0  0  0  0
    8.2172  -10.7158    0.0000 C   0  0  0  0  0  0  0  0  0  0  0  0
    7.7323  -11.3832    0.0000 C   0  0  0  0  0  0  0  0  0  0  0  0
    6.9118  -11.2970    0.0000 C   0  0  0  0  0  0  0  0  0  0  0  0
    6.4269  -11.9644    0.0000 O   0  0  0  0  0  0  0  0  0  0  0  0
    5.6064  -11.8782    0.0000 C   0  0  0  0  0  0  0  0  0  0  0  0
    5.1215  -12.5456    0.0000 C   0  0  2  0  0  0  0  0  0  0  0  0
    5.3764  -13.3302    0.0000 C   0  0  0  0  0  0  0  0  0  0  0  0
    4.7090  -13.8152    0.0000 O   0  0  0  0  0  0  0  0  0  0  0  0
    4.0415  -13.3302    0.0000 C   0  0  2  0  0  0  0  0  0  0  0  0
    3.6290  -14.0447    0.0000 C   0  0  0  0  0  0  0  0  0  0  0  0
    4.0415  -14.7592    0.0000 N   0  0  0  0  0  0  0  0  0  0  0  0
    3.7060  -15.5129    0.0000 C   0  0  0  0  0  0  0  0  0  0  0  0
    4.3191  -16.0649    0.0000 N   0  0  0  0  0  0  0  0  0  0  0  0
    5.0335  -15.6524    0.0000 C   0  0  0  0  0  0  0  0  0  0  0  0
    4.8620  -14.8454    0.0000 N   0  0  0  0  0  0  0  0  0  0  0  0
    4.2965  -12.5456    0.0000 C   0  0  0  0  0  0  0  0  0  0  0  0
    3.2878  -12.9947    0.0000 C   0  0  0  0  0  0  0  0  0  0  0  0
    2.6204  -13.4796    0.0000 C   0  0  0  0  0  0  0  0  0  0  0  0
    1.8667  -13.1440    0.0000 C   0  0  0  0  0  0  0  0  0  0  0  0
    1.7805  -12.3236    0.0000 C   0  0  0  0  0  0  0  0  0  0  0  0
    1.0268  -11.9880    0.0000 F   0  0  0  0  0  0  0  0  0  0  0  0
    2.4479  -11.8386    0.0000 C   0  0  0  0  0  0  0  0  0  0  0  0
    3.2016  -12.1742    0.0000 C   0  0  0  0  0  0  0  0  0  0  0  0
    3.8690  -11.6893    0.0000 F   0  0  0  0  0  0  0  0  0  0  0  0
    6.5762  -10.5433    0.0000 C   0  0  0  0  0  0  0  0  0  0  0  0
    7.0611   -9.8759    0.0000 C   0  0  0  0  0  0  0  0  0  0  0  0
  1  2  1  0  0  0  0
  2  3  1  0  0  0  0
  3  4  1  0  0  0  0
  4  5  1  0  0  0  0
  4  6  1  6  0  0  0
  3  7  1  6  0  0  0
  7  8  1  0  0  0  0
  8  9  2  0  0  0  0
  9 10  1  0  0  0  0
 10 11  1  0  0  0  0
  7 11  1  0  0  0  0
 11 12  2  0  0  0  0
 10 13  1  0  0  0  0
 13 14  2  0  0  0  0
 14 15  1  0  0  0  0
 15 16  2  0  0  0  0
 16 17  1  0  0  0  0
 17 18  2  0  0  0  0
 13 18  1  0  0  0  0
 16 19  1  0  0  0  0
 19 20  1  0  0  0  0
 20 21  1  0  0  0  0
 21 22  1  0  0  0  0
 22 23  1  0  0  0  0
 23 24  1  0  0  0  0
 19 24  1  0  0  0  0
 22 25  1  0  0  0  0
 25 26  2  0  0  0  0
 26 27  1  0  0  0  0
 27 28  2  0  0  0  0
 28 29  1  0  0  0  0
 29 30  1  0  0  0  0
 31 30  1  6  0  0  0
 31 32  1  0  0  0  0
 32 33  1  0  0  0  0
 33 34  1  0  0  0  0
 34 35  1  6  0  0  0
 35 36  1  0  0  0  0
 36 37  1  0  0  0  0
 37 38  2  0  0  0  0
 38 39  1  0  0  0  0
 39 40  2  0  0  0  0
 36 40  1  0  0  0  0
 34 41  1  0  0  0  0
 31 41  1  0  0  0  0
 34 42  1  1  0  0  0
 42 43  2  0  0  0  0
 43 44  1  0  0  0  0
 44 45  2  0  0  0  0
 45 46  1  0  0  0  0
 45 47  1  0  0  0  0
 47 48  2  0  0  0  0
 42 48  1  0  0  0  0
 48 49  1  0  0  0  0
 28 50  1  0  0  0  0
 50 51  2  0  0  0  0
 25 51  1  0  0  0  0
M  END
> <COMPOUND_ID>
MMV688774

$$$$

  Mrv0541 04191616472D          

 21 22  0  0  0  0            999 V2000
    1.3222    0.7634    0.0000 C   0  0  0  0  0  0  0  0  0  0  0  0
    2.0367    1.1759    0.0000 C   0  0  0  0  0  0  0  0  0  0  0  0
    2.0367    2.0009    0.0000 O   0  0  0  0  0  0  0  0  0  0  0  0
    2.7512    0.7634    0.0000 O   0  0  0  0  0  0  0  0  0  0  0  0
    3.4656    1.1759    0.0000 C   0  0  0  0  0  0  0  0  0  0  0  0
    3.4656    2.0009    0.0000 C   0  0  0  0  0  0  0  0  0  0  0  0
    4.1801    2.4134    0.0000 C   0  0  0  0  0  0  0  0  0  0  0  0
    4.8946    2.0009    0.0000 C   0  0  0  0  0  0  0  0  0  0  0  0
    4.8946    1.1759    0.0000 C   0  0  0  0  0  0  0  0  0  0  0  0
    4.1801    0.7634    0.0000 C   0  0  0  0  0  0  0  0  0  0  0  0
    4.1801   -0.0616    0.0000 C   0  0  0  0  0  0  0  0  0  0  0  0
    4.8946   -0.4741    0.0000 O   0  0  0  0  0  0  0  0  0  0  0  0
    3.4656   -0.4741    0.0000 N   0  0  0  0  0  0  0  0  0  0  0  0
    3.4656   -1.2991    0.0000 C   0  0  0  0  0  0  0  0  0  0  0  0
    4.1331   -1.7840    0.0000 N   0  0  0  0  0  0  0  0  0  0  0  0
    3.8781   -2.5687    0.0000 C   0  0  0  0  0  0  0  0  0  0  0  0
    3.0531   -2.5687    0.0000 C   0  0  0  0  0  0  0  0  0  0  0  0
    2.7982   -1.7840    0.0000 S   0  0  0  0  0  0  0  0  0  0  0  0
    2.5682   -3.2361    0.0000 N   0  3  0  0  0  0  0  0  0  0  0  0
    2.9038   -3.9898    0.0000 O   0  0  0  0  0  0  0  0  0  0  0  0
    1.7477   -3.1499    0.0000 O   0  5  0  0  0  0  0  0  0  0  0  0
  1  2  1  0  0  0  0
  2  3  2  0  0  0  0
  2  4  1  0  0  0  0
  4  5  1  0  0  0  0
  5  6  2  0  0  0  0
  6  7  1  0  0  0  0
  7  8  2  0  0  0  0
  8  9  1  0  0  0  0
  9 10  2  0  0  0  0
  5 10  1  0  0  0  0
 10 11  1  0  0  0  0
 11 12  2  0  0  0  0
 11 13  1  0  0  0  0
 13 14  1  0  0  0  0
 14 15  2  0  0  0  0
 15 16  1  0  0  0  0
 16 17  2  0  0  0  0
 17 18  1  0  0  0  0
 14 18  1  0  0  0  0
 17 19  1  0  0  0  0
 19 20  2  0  0  0  0
 19 21  1  0  0  0  0
M  CHG  2  19   1  21  -1
M  END
> <COMPOUND_ID>
MMV688991

$$$$

  Mrv0541 04191616472D          

 14 13  0  0  1  0            999 V2000
   -0.1127   -3.1046    0.0000 C   0  0  0  0  0  0  0  0  0  0  0  0
    0.6974   -2.9487    0.0000 C   0  0  0  0  0  0  0  0  0  0  0  0
    1.2375   -3.5724    0.0000 C   0  0  2  0  0  0  0  0  0  0  0  0
    0.9675   -4.3519    0.0000 C   0  0  0  0  0  0  0  0  0  0  0  0
    0.1573   -4.5078    0.0000 O   0  0  0  0  0  0  0  0  0  0  0  0
    2.0476   -3.4164    0.0000 N   0  0  0  0  0  0  0  0  0  0  0  0
    2.5877   -4.0401    0.0000 C   0  0  0  0  0  0  0  0  0  0  0  0
    3.3979   -3.8842    0.0000 C   0  0  0  0  0  0  0  0  0  0  0  0
    3.9379   -4.5078    0.0000 N   0  0  0  0  0  0  0  0  0  0  0  0
    4.7481   -4.3519    0.0000 C   0  0  2  0  0  0  0  0  0  0  0  0
    5.2882   -4.9755    0.0000 C   0  0  0  0  0  0  0  0  0  0  0  0
    6.0983   -4.8196    0.0000 C   0  0  0  0  0  0  0  0  0  0  0  0
    5.0181   -3.5724    0.0000 C   0  0  0  0  0  0  0  0  0  0  0  0
    5.8283   -3.4164    0.0000 O   0  0  0  0  0  0  0  0  0  0  0  0
  1  2  1  0  0  0  0
  2  3  1  0  0  0  0
  3  4  1  0  0  0  0
  4  5  1  0  0  0  0
  3  6  1  1  0  0  0
  6  7  1  0  0  0  0
  7  8  1  0  0  0  0
  8  9  1  0  0  0  0
 10  9  1  1  0  0  0
 10 11  1  0  0  0  0
 11 12  1  0  0  0  0
 10 13  1  0  0  0  0
 13 14  1  0  0  0  0
M  END
> <COMPOUND_ID>
MMV687801

$$$$

  Mrv0541 04191616472D          

 24 26  0  0  0  0            999 V2000
    0.0000    0.8250    0.0000 O   0  0  0  0  0  0  0  0  0  0  0  0
    0.0000   -0.0000    0.0000 C   0  0  0  0  0  0  0  0  0  0  0  0
   -0.7145   -0.4125    0.0000 C   0  0  0  0  0  0  0  0  0  0  0  0
   -1.4289   -0.0000    0.0000 C   0  0  0  0  0  0  0  0  0  0  0  0
   -2.1434   -0.4125    0.0000 C   0  0  0  0  0  0  0  0  0  0  0  0
   -2.1434   -1.2375    0.0000 C   0  0  0  0  0  0  0  0  0  0  0  0
   -2.8579   -1.6500    0.0000 C   0  0  0  0  0  0  0  0  0  0  0  0
   -3.5724   -1.2375    0.0000 C   0  0  0  0  0  0  0  0  0  0  0  0
   -4.2868   -1.6500    0.0000 C   0  0  0  0  0  0  0  0  0  0  0  0
   -5.0013   -2.0625    0.0000 C   0  0  0  0  0  0  0  0  0  0  0  0
   -3.8743   -2.3645    0.0000 C   0  0  0  0  0  0  0  0  0  0  0  0
   -4.6993   -0.9355    0.0000 C   0  0  0  0  0  0  0  0  0  0  0  0
   -3.5724   -0.4125    0.0000 C   0  0  0  0  0  0  0  0  0  0  0  0
   -2.8579   -0.0000    0.0000 C   0  0  0  0  0  0  0  0  0  0  0  0
   -0.7145   -1.2375    0.0000 C   0  0  0  0  0  0  0  0  0  0  0  0
    0.0000   -1.6500    0.0000 C   0  0  0  0  0  0  0  0  0  0  0  0
    0.7145   -1.2375    0.0000 C   0  0  0  0  0  0  0  0  0  0  0  0
    0.7145   -0.4125    0.0000 C   0  0  0  0  0  0  0  0  0  0  0  0
    1.4289   -0.0000    0.0000 C   0  0  0  0  0  0  0  0  0  0  0  0
    2.1434   -0.4125    0.0000 C   0  0  0  0  0  0  0  0  0  0  0  0
    2.1434   -1.2375    0.0000 C   0  0  0  0  0  0  0  0  0  0  0  0
    1.4289   -1.6500    0.0000 C   0  0  0  0  0  0  0  0  0  0  0  0
    0.0000   -2.4750    0.0000 O   0  0  0  0  0  0  0  0  0  0  0  0
   -1.4289   -1.6500    0.0000 O   0  0  0  0  0  0  0  0  0  0  0  0
  1  2  2  0  0  0  0
  2  3  1  0  0  0  0
  3  4  1  0  0  0  0
  4  5  1  0  0  0  0
  5  6  1  0  0  0  0
  6  7  1  0  0  0  0
  7  8  1  0  0  0  0
  8  9  1  0  0  0  0
  9 10  1  0  0  0  0
  9 11  1  0  0  0  0
  9 12  1  0  0  0  0
  8 13  1  0  0  0  0
 13 14  1  0  0  0  0
  5 14  1  0  0  0  0
  3 15  2  0  0  0  0
 15 16  1  0  0  0  0
 16 17  1  0  0  0  0
 17 18  2  0  0  0  0
  2 18  1  0  0  0  0
 18 19  1  0  0  0  0
 19 20  2  0  0  0  0
 20 21  1  0  0  0  0
 21 22  2  0  0  0  0
 17 22  1  0  0  0  0
 16 23  2  0  0  0  0
 15 24  1  0  0  0  0
M  END
> <COMPOUND_ID>
MMV689480

$$$$

  Mrv0541 04191616472D          

 22 24  0  0  0  0            999 V2000
   -1.8212   -2.1269    0.0000 C   0  0  0  0  0  0  0  0  0  0  0  0
   -1.4087   -1.4124    0.0000 O   0  0  0  0  0  0  0  0  0  0  0  0
   -0.5837   -1.4124    0.0000 C   0  0  0  0  0  0  0  0  0  0  0  0
   -0.1712   -2.1269    0.0000 O   0  0  0  0  0  0  0  0  0  0  0  0
   -0.1712   -0.6979    0.0000 N   0  0  0  0  0  0  0  0  0  0  0  0
    0.6538   -0.6979    0.0000 C   0  0  0  0  0  0  0  0  0  0  0  0
    1.1387   -0.0305    0.0000 N   0  0  0  0  0  0  0  0  0  0  0  0
    1.9233   -0.2854    0.0000 C   0  0  0  0  0  0  0  0  0  0  0  0
    2.6378    0.1271    0.0000 C   0  0  0  0  0  0  0  0  0  0  0  0
    3.3523   -0.2854    0.0000 C   0  0  0  0  0  0  0  0  0  0  0  0
    3.3523   -1.1104    0.0000 C   0  0  0  0  0  0  0  0  0  0  0  0
    2.6378   -1.5229    0.0000 C   0  0  0  0  0  0  0  0  0  0  0  0
    1.9233   -1.1104    0.0000 C   0  0  0  0  0  0  0  0  0  0  0  0
    1.1387   -1.3654    0.0000 N   0  0  0  0  0  0  0  0  0  0  0  0
    4.0668    0.1271    0.0000 C   0  0  0  0  0  0  0  0  0  0  0  0
    4.0668    0.9521    0.0000 O   0  0  0  0  0  0  0  0  0  0  0  0
    4.7812   -0.2854    0.0000 C   0  0  0  0  0  0  0  0  0  0  0  0
    5.4957    0.1271    0.0000 C   0  0  0  0  0  0  0  0  0  0  0  0
    6.2102   -0.2854    0.0000 C   0  0  0  0  0  0  0  0  0  0  0  0
    6.2102   -1.1104    0.0000 C   0  0  0  0  0  0  0  0  0  0  0  0
    5.4957   -1.5229    0.0000 C   0  0  0  0  0  0  0  0  0  0  0  0
    4.7812   -1.1104    0.0000 C   0  0  0  0  0  0  0  0  0  0  0  0
  1  2  1  0  0  0  0
  2  3  1  0  0  0  0
  3  4  2  0  0  0  0
  3  5  1  0  0  0  0
  5  6  1  0  0  0  0
  6  7  2  0  0  0  0
  7  8  1  0  0  0  0
  8  9  2  0  0  0  0
  9 10  1  0  0  0  0
 10 11  2  0  0  0  0
 11 12  1  0  0  0  0
 12 13  2  0  0  0  0
  8 13  1  0  0  0  0
 13 14  1  0  0  0  0
  6 14  1  0  0  0  0
 10 15  1  0  0  0  0
 15 16  2  0  0  0  0
 15 17  1  0  0  0  0
 17 18  2  0  0  0  0
 18 19  1  0  0  0  0
 19 20  2  0  0  0  0
 20 21  1  0  0  0  0
 21 22  2  0  0  0  0
 17 22  1  0  0  0  0
M  END
> <COMPOUND_ID>
MMV003152

$$$$

  Mrv0541 04191616472D          

 19 20  0  0  0  0            999 V2000
   -2.1434    1.2375    0.0000 C   0  0  0  0  0  0  0  0  0  0  0  0
   -1.4289    0.8250    0.0000 O   0  0  0  0  0  0  0  0  0  0  0  0
   -1.4289   -0.0000    0.0000 C   0  0  0  0  0  0  0  0  0  0  0  0
   -0.7145   -0.4125    0.0000 C   0  0  0  0  0  0  0  0  0  0  0  0
   -0.7145   -1.2375    0.0000 C   0  0  0  0  0  0  0  0  0  0  0  0
    0.0000   -1.6500    0.0000 N   0  0  0  0  0  0  0  0  0  0  0  0
    0.7145   -1.2375    0.0000 C   0  0  0  0  0  0  0  0  0  0  0  0
    0.7145   -0.4125    0.0000 C   0  0  0  0  0  0  0  0  0  0  0  0
    1.4289   -1.6500    0.0000 C   0  0  0  0  0  0  0  0  0  0  0  0
    2.1434   -1.2375    0.0000 C   0  0  0  0  0  0  0  0  0  0  0  0
    2.8579   -1.6500    0.0000 C   0  0  0  0  0  0  0  0  0  0  0  0
    3.5724   -1.2375    0.0000 N   0  0  0  0  0  0  0  0  0  0  0  0
   -1.4289   -1.6500    0.0000 C   0  0  0  0  0  0  0  0  0  0  0  0
   -1.4289   -2.4750    0.0000 N   0  0  0  0  0  0  0  0  0  0  0  0
   -2.1434   -2.8875    0.0000 C   0  0  0  0  0  0  0  0  0  0  0  0
   -2.8579   -2.4750    0.0000 C   0  0  0  0  0  0  0  0  0  0  0  0
   -2.8579   -1.6500    0.0000 C   0  0  0  0  0  0  0  0  0  0  0  0
   -2.1434   -1.2375    0.0000 C   0  0  0  0  0  0  0  0  0  0  0  0
   -2.1434   -0.4125    0.0000 C   0  0  0  0  0  0  0  0  0  0  0  0
  1  2  1  0  0  0  0
  2  3  1  0  0  0  0
  3  4  2  0  0  0  0
  4  5  1  0  0  0  0
  5  6  1  0  0  0  0
  6  7  1  0  0  0  0
  7  8  1  0  0  0  0
  7  9  1  0  0  0  0
  9 10  1  0  0  0  0
 10 11  1  0  0  0  0
 11 12  1  0  0  0  0
  5 13  2  0  0  0  0
 13 14  1  0  0  0  0
 14 15  2  0  0  0  0
 15 16  1  0  0  0  0
 16 17  2  0  0  0  0
 17 18  1  0  0  0  0
 13 18  1  0  0  0  0
 18 19  2  0  0  0  0
  3 19  1  0  0  0  0
M  END
> <COMPOUND_ID>
MMV000023

$$$$

  Mrv0541 04191616472D          

 26 28  0  0  1  0            999 V2000
    2.1434   -2.8875    0.0000 O   0  0  0  0  0  0  0  0  0  0  0  0
    1.4289   -2.4750    0.0000 C   0  0  2  0  0  0  0  0  0  0  0  0
    0.7145   -2.8875    0.0000 C   0  0  1  0  0  0  0  0  0  0  0  0
    0.7145   -3.7125    0.0000 C   0  0  0  0  0  0  0  0  0  0  0  0
    0.0000   -4.1250    0.0000 C   0  0  0  0  0  0  0  0  0  0  0  0
   -0.7145   -3.7125    0.0000 C   0  0  0  0  0  0  0  0  0  0  0  0
   -0.7145   -2.8875    0.0000 C   0  0  0  0  0  0  0  0  0  0  0  0
    0.0000   -2.4750    0.0000 N   0  0  0  0  0  0  0  0  0  0  0  0
    1.4289   -1.6500    0.0000 C   0  0  0  0  0  0  0  0  0  0  0  0
    0.7145   -1.2375    0.0000 C   0  0  0  0  0  0  0  0  0  0  0  0
    0.7145   -0.4125    0.0000 C   0  0  0  0  0  0  0  0  0  0  0  0
    1.4289    0.0000    0.0000 N   0  0  0  0  0  0  0  0  0  0  0  0
    2.1434   -0.4125    0.0000 C   0  0  0  0  0  0  0  0  0  0  0  0
    2.8579    0.0000    0.0000 C   0  0  0  0  0  0  0  0  0  0  0  0
    3.5724   -0.4125    0.0000 C   0  0  0  0  0  0  0  0  0  0  0  0
    3.5724   -1.2375    0.0000 C   0  0  0  0  0  0  0  0  0  0  0  0
    2.8579   -1.6500    0.0000 C   0  0  0  0  0  0  0  0  0  0  0  0
    2.1434   -1.2375    0.0000 C   0  0  0  0  0  0  0  0  0  0  0  0
    2.8579    0.8250    0.0000 C   0  0  0  0  0  0  0  0  0  0  0  0
    2.8579    1.6500    0.0000 F   0  0  0  0  0  0  0  0  0  0  0  0
    3.6829    0.8250    0.0000 F   0  0  0  0  0  0  0  0  0  0  0  0
    2.0329    0.8250    0.0000 F   0  0  0  0  0  0  0  0  0  0  0  0
    0.0000    0.0000    0.0000 C   0  0  0  0  0  0  0  0  0  0  0  0
   -0.7145    0.4125    0.0000 F   0  0  0  0  0  0  0  0  0  0  0  0
    0.4125    0.7145    0.0000 F   0  0  0  0  0  0  0  0  0  0  0  0
   -0.4125   -0.7145    0.0000 F   0  0  0  0  0  0  0  0  0  0  0  0
  2  1  1  6  0  0  0
  3  2  1  1  0  0  0
  3  4  1  0  0  0  0
  4  5  1  0  0  0  0
  5  6  1  0  0  0  0
  6  7  1  0  0  0  0
  7  8  1  0  0  0  0
  3  8  1  0  0  0  0
  2  9  1  0  0  0  0
  9 10  1  0  0  0  0
 10 11  2  0  0  0  0
 11 12  1  0  0  0  0
 12 13  2  0  0  0  0
 13 14  1  0  0  0  0
 14 15  2  0  0  0  0
 15 16  1  0  0  0  0
 16 17  2  0  0  0  0
 17 18  1  0  0  0  0
  9 18  2  0  0  0  0
 13 18  1  0  0  0  0
 14 19  1  0  0  0  0
 19 20  1  0  0  0  0
 19 21  1  0  0  0  0
 19 22  1  0  0  0  0
 11 23  1  0  0  0  0
 23 24  1  0  0  0  0
 23 25  1  0  0  0  0
 23 26  1  0  0  0  0
M  END
> <COMPOUND_ID>
MMV000014

$$$$

  Mrv0541 04191616472D          

 24 26  0  0  1  0            999 V2000
   -0.7145   -1.2375    0.0000 C   0  0  0  0  0  0  0  0  0  0  0  0
    0.0000   -1.6500    0.0000 C   0  0  0  0  0  0  0  0  0  0  0  0
    0.7145   -1.2375    0.0000 O   0  0  0  0  0  0  0  0  0  0  0  0
    0.0000   -2.4750    0.0000 N   0  0  0  0  0  0  0  0  0  0  0  0
    0.7145   -2.8875    0.0000 C   0  0  0  0  0  0  0  0  0  0  0  0
    0.7145   -3.7125    0.0000 C   0  0  2  0  0  0  0  0  0  0  0  0
    1.3819   -4.1974    0.0000 C   0  0  0  0  0  0  0  0  0  0  0  0
    1.1270   -4.9820    0.0000 N   0  0  0  0  0  0  0  0  0  0  0  0
    0.3020   -4.9820    0.0000 C   0  0  0  0  0  0  0  0  0  0  0  0
   -0.1830   -5.6495    0.0000 O   0  0  0  0  0  0  0  0  0  0  0  0
    0.0470   -4.1974    0.0000 O   0  0  0  0  0  0  0  0  0  0  0  0
    1.6119   -5.6495    0.0000 C   0  0  0  0  0  0  0  0  0  0  0  0
    2.4324   -5.5632    0.0000 C   0  0  0  0  0  0  0  0  0  0  0  0
    2.9173   -6.2307    0.0000 C   0  0  0  0  0  0  0  0  0  0  0  0
    2.5817   -6.9844    0.0000 C   0  0  0  0  0  0  0  0  0  0  0  0
    3.0667   -7.6518    0.0000 N   0  0  0  0  0  0  0  0  0  0  0  0
    3.8871   -7.5656    0.0000 C   0  0  0  0  0  0  0  0  0  0  0  0
    4.3721   -8.2330    0.0000 C   0  0  0  0  0  0  0  0  0  0  0  0
    4.0365   -8.9867    0.0000 O   0  0  0  0  0  0  0  0  0  0  0  0
    3.2160   -9.0729    0.0000 C   0  0  0  0  0  0  0  0  0  0  0  0
    2.7311   -8.4055    0.0000 C   0  0  0  0  0  0  0  0  0  0  0  0
    1.7613   -7.0706    0.0000 C   0  0  0  0  0  0  0  0  0  0  0  0
    1.4257   -7.8243    0.0000 F   0  0  0  0  0  0  0  0  0  0  0  0
    1.2763   -6.4032    0.0000 C   0  0  0  0  0  0  0  0  0  0  0  0
  1  2  1  0  0  0  0
  2  3  2  0  0  0  0
  2  4  1  0  0  0  0
  4  5  1  0  0  0  0
  6  5  1  6  0  0  0
  6  7  1  0  0  0  0
  7  8  1  0  0  0  0
  8  9  1  0  0  0  0
  9 10  2  0  0  0  0
  9 11  1  0  0  0  0
  6 11  1  0  0  0  0
  8 12  1  0  0  0  0
 12 13  2  0  0  0  0
 13 14  1  0  0  0  0
 14 15  2  0  0  0  0
 15 16  1  0  0  0  0
 16 17  1  0  0  0  0
 17 18  1  0  0  0  0
 18 19  1  0  0  0  0
 19 20  1  0  0  0  0
 20 21  1  0  0  0  0
 16 21  1  0  0  0  0
 15 22  1  0  0  0  0
 22 23  1  0  0  0  0
 22 24  2  0  0  0  0
 12 24  1  0  0  0  0
M  END
> <COMPOUND_ID>
MMV687803

$$$$

  Mrv0541 04191616472D          

 40 42  0  0  0  0            999 V2000
    4.4449   -0.4672    0.0000 C   0  0  0  0  0  0  0  0  0  0  0  0
    5.0580   -1.0192    0.0000 N   0  0  0  0  0  0  0  0  0  0  0  0
    4.8865   -1.8262    0.0000 C   0  0  0  0  0  0  0  0  0  0  0  0
    5.4996   -2.3782    0.0000 C   0  0  0  0  0  0  0  0  0  0  0  0
    6.2842   -2.1233    0.0000 O   0  0  0  0  0  0  0  0  0  0  0  0
    5.3281   -3.1852    0.0000 C   0  0  0  0  0  0  0  0  0  0  0  0
    5.9411   -3.7372    0.0000 O   0  0  0  0  0  0  0  0  0  0  0  0
    4.5434   -3.4401    0.0000 C   0  0  0  0  0  0  0  0  0  0  0  0
    4.3719   -4.2471    0.0000 C   0  0  0  0  0  0  0  0  0  0  0  0
    4.9850   -4.7991    0.0000 O   0  0  0  0  0  0  0  0  0  0  0  0
    3.9303   -2.8881    0.0000 O   0  0  0  0  0  0  0  0  0  0  0  0
    4.1019   -2.0811    0.0000 C   0  0  0  0  0  0  0  0  0  0  0  0
    3.4888   -1.5291    0.0000 O   0  0  0  0  0  0  0  0  0  0  0  0
    2.7041   -1.7840    0.0000 C   0  0  0  0  0  0  0  0  0  0  0  0
    2.4492   -2.5687    0.0000 C   0  0  0  0  0  0  0  0  0  0  0  0
    2.9341   -3.2361    0.0000 O   0  0  0  0  0  0  0  0  0  0  0  0
    2.5986   -3.9898    0.0000 C   0  0  0  0  0  0  0  0  0  0  0  0
    3.0835   -4.6572    0.0000 C   0  0  0  0  0  0  0  0  0  0  0  0
    3.9040   -4.5710    0.0000 O   0  0  0  0  0  0  0  0  0  0  0  0
    2.7479   -5.4109    0.0000 C   0  0  0  0  0  0  0  0  0  0  0  0
    3.2329   -6.0783    0.0000 O   0  0  0  0  0  0  0  0  0  0  0  0
    1.9275   -5.4971    0.0000 C   0  0  0  0  0  0  0  0  0  0  0  0
    1.5919   -6.2508    0.0000 N   0  0  0  0  0  0  0  0  0  0  0  0
    0.7714   -6.3370    0.0000 C   0  0  0  0  0  0  0  0  0  0  0  0
    0.4359   -7.0907    0.0000 N   0  0  0  0  0  0  0  0  0  0  0  0
    0.2865   -5.6696    0.0000 N   0  0  0  0  0  0  0  0  0  0  0  0
    1.4425   -4.8297    0.0000 C   0  0  0  0  0  0  0  0  0  0  0  0
    0.6221   -4.9159    0.0000 O   0  0  0  0  0  0  0  0  0  0  0  0
    1.7781   -4.0760    0.0000 C   0  0  0  0  0  0  0  0  0  0  0  0
    1.2932   -3.4086    0.0000 N   0  0  0  0  0  0  0  0  0  0  0  0
    0.4727   -3.4948    0.0000 C   0  0  0  0  0  0  0  0  0  0  0  0
    0.1371   -4.2485    0.0000 N   0  0  0  0  0  0  0  0  0  0  0  0
   -0.0122   -2.8274    0.0000 N   0  0  0  0  0  0  0  0  0  0  0  0
    1.6242   -2.5687    0.0000 O   0  0  0  0  0  0  0  0  0  0  0  0
    1.3693   -1.7840    0.0000 C   0  0  0  0  0  0  0  0  0  0  0  0
    0.5846   -1.5291    0.0000 C   0  0  0  0  0  0  0  0  0  0  0  0
    2.0367   -1.2991    0.0000 C   0  0  0  0  0  0  0  0  0  0  0  0
    1.6317   -0.5804    0.0000 O   0  0  0  0  0  0  0  0  0  0  0  0
    2.4417   -0.5804    0.0000 C   0  0  0  0  0  0  0  0  0  0  0  0
    3.2667   -0.5717    0.0000 O   0  0  0  0  0  0  0  0  0  0  0  0
  1  2  1  0  0  0  0
  2  3  1  0  0  0  0
  3  4  1  0  0  0  0
  4  5  1  0  0  0  0
  4  6  1  0  0  0  0
  6  7  1  0  0  0  0
  6  8  1  0  0  0  0
  8  9  1  0  0  0  0
  9 10  1  0  0  0  0
  8 11  1  0  0  0  0
 11 12  1  0  0  0  0
  3 12  1  0  0  0  0
 12 13  1  0  0  0  0
 13 14  1  0  0  0  0
 14 15  1  0  0  0  0
 15 16  1  0  0  0  0
 16 17  1  0  0  0  0
 17 18  1  0  0  0  0
 18 19  1  0  0  0  0
 18 20  1  0  0  0  0
 20 21  1  0  0  0  0
 20 22  1  0  0  0  0
 22 23  1  0  0  0  0
 23 24  1  0  0  0  0
 24 25  2  0  0  0  0
 24 26  1  0  0  0  0
 22 27  1  0  0  0  0
 27 28  1  0  0  0  0
 27 29  1  0  0  0  0
 17 29  1  0  0  0  0
 29 30  1  0  0  0  0
 30 31  1  0  0  0  0
 31 32  2  0  0  0  0
 31 33  1  0  0  0  0
 15 34  1  0  0  0  0
 34 35  1  0  0  0  0
 35 36  1  0  0  0  0
 35 37  1  0  0  0  0
 14 37  1  0  0  0  0
 37 38  1  0  0  0  0
 37 39  1  0  0  0  0
 39 40  2  0  0  0  0
M  END
> <COMPOUND_ID>
MMV688994

$$$$

  Mrv0541 04191616472D          

 26 29  0  0  1  0            999 V2000
    3.5724   -2.8875    0.0000 C   0  0  0  0  0  0  0  0  0  0  0  0
    2.8579   -2.4750    0.0000 C   0  0  1  0  0  0  0  0  0  0  0  0
    2.1434   -2.8875    0.0000 C   0  0  0  0  0  0  0  0  0  0  0  0
    1.4289   -2.4750    0.0000 O   0  0  0  0  0  0  0  0  0  0  0  0
    1.4289   -1.6500    0.0000 C   0  0  0  0  0  0  0  0  0  0  0  0
    0.7145   -1.2375    0.0000 C   0  0  0  0  0  0  0  0  0  0  0  0
    0.0000   -1.6500    0.0000 N   0  0  0  0  0  0  0  0  0  0  0  0
    0.0000   -2.4750    0.0000 C   0  0  0  0  0  0  0  0  0  0  0  0
   -0.7145   -2.8875    0.0000 C   0  0  0  0  0  0  0  0  0  0  0  0
   -1.4289   -2.4750    0.0000 N   0  0  0  0  0  0  0  0  0  0  0  0
   -2.1434   -2.8875    0.0000 C   0  0  0  0  0  0  0  0  0  0  0  0
   -1.4289   -1.6500    0.0000 C   0  0  0  0  0  0  0  0  0  0  0  0
   -0.7145   -1.2375    0.0000 C   0  0  0  0  0  0  0  0  0  0  0  0
    0.7145   -0.4125    0.0000 C   0  0  0  0  0  0  0  0  0  0  0  0
    0.0000    0.0000    0.0000 F   0  0  0  0  0  0  0  0  0  0  0  0
    1.4289   -0.0000    0.0000 C   0  0  0  0  0  0  0  0  0  0  0  0
    2.1434   -0.4125    0.0000 C   0  0  0  0  0  0  0  0  0  0  0  0
    2.8579    0.0000    0.0000 C   0  0  0  0  0  0  0  0  0  0  0  0
    2.8579    0.8250    0.0000 O   0  0  0  0  0  0  0  0  0  0  0  0
    3.5724   -0.4125    0.0000 C   0  0  0  0  0  0  0  0  0  0  0  0
    3.5724   -1.2375    0.0000 C   0  0  0  0  0  0  0  0  0  0  0  0
    2.8579   -1.6500    0.0000 N   0  0  0  0  0  0  0  0  0  0  0  0
    2.1434   -1.2375    0.0000 C   0  0  0  0  0  0  0  0  0  0  0  0
    4.2868   -0.0000    0.0000 C   0  0  0  0  0  0  0  0  0  0  0  0
    4.2868    0.8250    0.0000 O   0  0  0  0  0  0  0  0  0  0  0  0
    5.0013   -0.4125    0.0000 O   0  0  0  0  0  0  0  0  0  0  0  0
  2  1  1  1  0  0  0
  2  3  1  0  0  0  0
  3  4  1  0  0  0  0
  4  5  1  0  0  0  0
  5  6  2  0  0  0  0
  6  7  1  0  0  0  0
  7  8  1  0  0  0  0
  8  9  1  0  0  0  0
  9 10  1  0  0  0  0
 10 11  1  0  0  0  0
 10 12  1  0  0  0  0
 12 13  1  0  0  0  0
  7 13  1  0  0  0  0
  6 14  1  0  0  0  0
 14 15  1  0  0  0  0
 14 16  2  0  0  0  0
 16 17  1  0  0  0  0
 17 18  1  0  0  0  0
 18 19  2  0  0  0  0
 18 20  1  0  0  0  0
 20 21  2  0  0  0  0
 21 22  1  0  0  0  0
  2 22  1  0  0  0  0
 22 23  1  0  0  0  0
  5 23  1  0  0  0  0
 17 23  2  0  0  0  0
 20 24  1  0  0  0  0
 24 25  2  0  0  0  0
 24 26  1  0  0  0  0
M  END
> <COMPOUND_ID>
MMV687798

$$$$

  Mrv0541 04191616472D          

 59 63  0  0  1  0            999 V2000
    4.8756   -3.2308    0.0000 C   0  0  0  0  0  0  0  0  0  0  0  0
    4.0609   -3.1006    0.0000 O   0  0  0  0  0  0  0  0  0  0  0  0
    3.7663   -2.3300    0.0000 C   0  0  1  0  0  0  0  0  0  0  0  0
    4.4985   -1.9405    0.0000 C   0  0  0  0  0  0  0  0  0  0  0  0
    5.1230   -1.3809    0.0000 C   0  0  0  0  0  0  0  0  0  0  0  0
    5.6791   -0.7312    0.0000 O   0  0  0  0  0  0  0  0  0  0  0  0
    5.7119    0.1310    0.0000 C   0  0  1  0  0  0  0  0  0  0  0  0
    6.1914    0.8023    0.0000 C   0  0  0  0  0  0  0  0  0  0  0  0
    4.9423   -0.1659    0.0000 O   0  0  0  0  0  0  0  0  0  0  0  0
    4.3717    0.4210    0.0000 C   0  0  0  0  0  0  0  0  0  0  0  0
    4.7906    1.1472    0.0000 C   0  0  0  0  0  0  0  0  0  0  0  0
    5.6201    0.9724    0.0000 C   0  0  0  0  0  0  0  0  0  0  0  0
    6.2316    1.5262    0.0000 O   0  0  0  0  0  0  0  0  0  0  0  0
    4.3081    1.8720    0.0000 C   0  0  0  0  0  0  0  0  0  0  0  0
    4.6156    2.6556    0.0000 C   0  0  0  0  0  0  0  0  0  0  0  0
    5.4325    2.7710    0.0000 O   0  0  0  0  0  0  0  0  0  0  0  0
    4.1228    3.2978    0.0000 C   0  0  0  0  0  0  0  0  0  0  0  0
    4.4621    4.0498    0.0000 C   0  0  0  0  0  0  0  0  0  0  0  0
    5.2830    4.1320    0.0000 N   0  0  0  0  0  0  0  0  0  0  0  0
    5.6222    4.8840    0.0000 N   0  0  0  0  0  0  0  0  0  0  0  0
    5.1406    5.5538    0.0000 C   0  0  0  0  0  0  0  0  0  0  0  0
    5.4799    6.3058    0.0000 C   0  0  0  0  0  0  0  0  0  0  0  0
    6.3008    6.3880    0.0000 N   0  0  0  0  0  0  0  0  0  0  0  0
    6.6401    7.1400    0.0000 C   0  0  0  0  0  0  0  0  0  0  0  0
    6.7824    5.7182    0.0000 C   0  0  0  0  0  0  0  0  0  0  0  0
    6.4431    4.9662    0.0000 C   0  0  0  0  0  0  0  0  0  0  0  0
    3.2851    3.2403    0.0000 C   0  0  0  0  0  0  0  0  0  0  0  0
    2.4661    3.5168    0.0000 N   0  0  0  0  0  0  0  0  0  0  0  0
    1.6172    3.5371    0.0000 C   0  0  0  0  0  0  0  0  0  0  0  0
    1.4677    4.3484    0.0000 O   0  0  0  0  0  0  0  0  0  0  0  0
    0.8079    3.2059    0.0000 C   0  0  0  0  0  0  0  0  0  0  0  0
    0.1544    2.6328    0.0000 C   0  0  0  0  0  0  0  0  0  0  0  0
   -0.3143    1.8820    0.0000 C   0  0  0  0  0  0  0  0  0  0  0  0
   -0.5415    1.0843    0.0000 C   0  0  0  0  0  0  0  0  0  0  0  0
   -0.5537    0.2538    0.0000 C   0  0  2  0  0  0  0  0  0  0  0  0
   -1.3731    0.1577    0.0000 C   0  0  0  0  0  0  0  0  0  0  0  0
   -0.3502   -0.5492    0.0000 C   0  0  2  0  0  0  0  0  0  0  0  0
   -1.1166   -0.8545    0.0000 O   0  0  0  0  0  0  0  0  0  0  0  0
    0.0542   -1.2721    0.0000 C   0  0  1  0  0  0  0  0  0  0  0  0
   -0.6071   -1.7654    0.0000 C   0  0  0  0  0  0  0  0  0  0  0  0
    0.6319   -1.8658    0.0000 C   0  0  1  0  0  0  0  0  0  0  0  0
    0.1208   -2.5134    0.0000 O   0  0  0  0  0  0  0  0  0  0  0  0
    1.3434   -2.2896    0.0000 C   0  0  1  0  0  0  0  0  0  0  0  0
    1.0172   -3.0474    0.0000 C   0  0  0  0  0  0  0  0  0  0  0  0
    2.1398   -2.5149    0.0000 C   0  0  2  0  0  0  0  0  0  0  0  0
    2.0203   -3.3312    0.0000 O   0  0  0  0  0  0  0  0  0  0  0  0
    1.2537   -3.6359    0.0000 C   0  0  0  0  0  0  0  0  0  0  0  0
    1.1342   -4.4522    0.0000 O   0  0  0  0  0  0  0  0  0  0  0  0
    0.6064   -3.1243    0.0000 C   0  0  0  0  0  0  0  0  0  0  0  0
    2.9656   -2.5272    0.0000 C   0  0  2  0  0  0  0  0  0  0  0  0
    3.0589   -3.3469    0.0000 C   0  0  0  0  0  0  0  0  0  0  0  0
    0.3737    3.9074    0.0000 C   0  0  0  0  0  0  0  0  0  0  0  0
    2.9901    2.4722    0.0000 C   0  0  0  0  0  0  0  0  0  0  0  0
    3.4642    1.7903    0.0000 C   0  0  0  0  0  0  0  0  0  0  0  0
    3.0948    1.0397    0.0000 C   0  0  0  0  0  0  0  0  0  0  0  0
    3.5347    0.3420    0.0000 C   0  0  0  0  0  0  0  0  0  0  0  0
    3.1706   -0.3983    0.0000 C   0  0  0  0  0  0  0  0  0  0  0  0
    2.2709    0.9964    0.0000 O   0  0  0  0  0  0  0  0  0  0  0  0
    2.1711    2.3731    0.0000 O   0  0  0  0  0  0  0  0  0  0  0  0
  1  2  1  0  0  0  0
  3  2  1  6  0  0  0
  3  4  1  0  0  0  0
  4  5  2  0  0  0  0
  5  6  1  0  0  0  0
  6  7  1  0  0  0  0
  7  8  1  6  0  0  0
  7  9  1  0  0  0  0
  9 10  1  0  0  0  0
 10 11  2  0  0  0  0
 11 12  1  0  0  0  0
  7 12  1  0  0  0  0
 12 13  2  0  0  0  0
 11 14  1  0  0  0  0
 14 15  2  0  0  0  0
 15 16  1  0  0  0  0
 15 17  1  0  0  0  0
 17 18  2  0  0  0  0
 18 19  1  0  0  0  0
 19 20  1  0  0  0  0
 20 21  1  0  0  0  0
 21 22  1  0  0  0  0
 22 23  1  0  0  0  0
 23 24  1  0  0  0  0
 23 25  1  0  0  0  0
 25 26  1  0  0  0  0
 20 26  1  0  0  0  0
 17 27  1  0  0  0  0
 27 28  2  0  0  0  0
 28 29  1  0  0  0  0
 29 30  2  0  0  0  0
 29 31  1  0  0  0  0
 31 32  2  0  0  0  0
 32 33  1  0  0  0  0
 33 34  2  0  0  0  0
 34 35  1  0  0  0  0
 35 36  1  1  0  0  0
 35 37  1  0  0  0  0
 37 38  1  1  0  0  0
 37 39  1  0  0  0  0
 39 40  1  6  0  0  0
 39 41  1  0  0  0  0
 41 42  1  6  0  0  0
 41 43  1  0  0  0  0
 43 44  1  6  0  0  0
 43 45  1  0  0  0  0
 45 46  1  1  0  0  0
 46 47  1  0  0  0  0
 47 48  2  0  0  0  0
 47 49  1  0  0  0  0
 45 50  1  0  0  0  0
  3 50  1  0  0  0  0
 50 51  1  1  0  0  0
 31 52  1  0  0  0  0
 27 53  1  0  0  0  0
 53 54  2  0  0  0  0
 14 54  1  0  0  0  0
 54 55  1  0  0  0  0
 55 56  2  0  0  0  0
 10 56  1  0  0  0  0
 56 57  1  0  0  0  0
 55 58  1  0  0  0  0
 53 59  1  0  0  0  0
M  END
> <COMPOUND_ID>
MMV688775

$$$$

  Mrv0541 04191616472D          

 65 67  0  0  1  0            999 V2000
   11.2512   -3.0093    0.0000 C   0  0  0  0  0  0  0  0  0  0  0  0
   10.5911   -2.5144    0.0000 C   0  0  2  0  0  0  0  0  0  0  0  0
    9.8325   -2.8386    0.0000 O   0  0  0  0  0  0  0  0  0  0  0  0
    9.1724   -2.3437    0.0000 C   0  0  0  0  0  0  0  0  0  0  0  0
    9.2709   -1.5246    0.0000 O   0  0  0  0  0  0  0  0  0  0  0  0
    8.4138   -2.6680    0.0000 C   0  0  0  0  0  0  0  0  0  0  0  0
    7.7537   -2.1731    0.0000 C   0  0  2  0  0  0  0  0  0  0  0  0
    7.8522   -1.3540    0.0000 O   0  0  0  0  0  0  0  0  0  0  0  0
    6.9951   -2.4973    0.0000 C   0  0  0  0  0  0  0  0  0  0  0  0
    6.3350   -2.0025    0.0000 C   0  0  2  0  0  0  0  0  0  0  0  0
    6.4335   -1.1834    0.0000 O   0  0  0  0  0  0  0  0  0  0  0  0
    5.5763   -2.3267    0.0000 C   0  0  0  0  0  0  0  0  0  0  0  0
    4.9162   -1.8318    0.0000 C   0  0  0  0  0  0  0  0  0  0  0  0
    4.1576   -2.1560    0.0000 C   0  0  1  0  0  0  0  0  0  0  0  0
    4.0591   -2.9751    0.0000 O   0  0  0  0  0  0  0  0  0  0  0  0
    3.4975   -1.6612    0.0000 C   0  0  2  0  0  0  0  0  0  0  0  0
    3.5961   -0.8421    0.0000 O   0  0  0  0  0  0  0  0  0  0  0  0
    2.7389   -1.9854    0.0000 C   0  0  0  0  0  0  0  0  0  0  0  0
    2.0788   -1.4905    0.0000 C   0  0  2  0  0  0  0  0  0  0  0  0
    2.1773   -0.6714    0.0000 O   0  0  0  0  0  0  0  0  0  0  0  0
    1.3202   -1.8147    0.0000 C   0  0  0  0  0  0  0  0  0  0  0  0
    0.6601   -1.3199    0.0000 C   0  0  2  0  0  0  0  0  0  0  0  0
    0.5616   -2.1390    0.0000 O   0  0  0  0  0  0  0  0  0  0  0  0
   -0.0985   -1.6441    0.0000 C   0  0  0  0  0  0  0  0  0  0  0  0
   -0.7586   -1.1492    0.0000 C   0  0  2  0  0  0  0  0  0  0  0  0
   -1.5172   -1.4735    0.0000 O   0  0  0  0  0  0  0  0  0  0  0  0
   -0.6601   -0.3301    0.0000 C   0  0  2  0  0  0  0  0  0  0  0  0
    0.0985   -0.0059    0.0000 C   0  0  2  0  0  0  0  0  0  0  0  0
    0.1970    0.8132    0.0000 C   0  0  0  0  0  0  0  0  0  0  0  0
    0.9557    1.1374    0.0000 C   0  0  1  0  0  0  0  0  0  0  0  0
    1.0542    1.9565    0.0000 O   0  0  0  0  0  0  0  0  0  0  0  0
    1.8128    2.2807    0.0000 C   0  0  2  0  0  0  0  0  0  0  0  0
    2.4729    1.7859    0.0000 O   0  0  0  0  0  0  0  0  0  0  0  0
    3.2315    2.1101    0.0000 C   0  0  2  0  0  0  0  0  0  0  0  0
    3.8916    1.6152    0.0000 C   0  0  0  0  0  0  0  0  0  0  0  0
    3.3300    2.9292    0.0000 C   0  0  1  0  0  0  0  0  0  0  0  0
    4.0887    3.2534    0.0000 O   0  0  0  0  0  0  0  0  0  0  0  0
    2.6699    3.4241    0.0000 C   0  0  2  0  0  0  0  0  0  0  0  0
    2.7685    4.2432    0.0000 N   0  0  0  0  0  0  0  0  0  0  0  0
    1.9113    3.0998    0.0000 C   0  0  2  0  0  0  0  0  0  0  0  0
    1.2512    3.5947    0.0000 O   0  0  0  0  0  0  0  0  0  0  0  0
    1.6158    0.6425    0.0000 C   0  0  0  0  0  0  0  0  0  0  0  0
    2.3744    0.9668    0.0000 C   0  0  0  0  0  0  0  0  0  0  0  0
    3.0345    0.4719    0.0000 C   0  0  0  0  0  0  0  0  0  0  0  0
    3.7931    0.7961    0.0000 C   0  0  0  0  0  0  0  0  0  0  0  0
    4.4532    0.3013    0.0000 C   0  0  0  0  0  0  0  0  0  0  0  0
    5.2118    0.6255    0.0000 C   0  0  0  0  0  0  0  0  0  0  0  0
    5.8719    0.1306    0.0000 C   0  0  0  0  0  0  0  0  0  0  0  0
    6.6305    0.4548    0.0000 C   0  0  0  0  0  0  0  0  0  0  0  0
    7.2906   -0.0400    0.0000 C   0  0  0  0  0  0  0  0  0  0  0  0
    8.0492    0.2842    0.0000 C   0  0  0  0  0  0  0  0  0  0  0  0
    8.7093   -0.2107    0.0000 C   0  0  0  0  0  0  0  0  0  0  0  0
    9.4680    0.1135    0.0000 C   0  0  0  0  0  0  0  0  0  0  0  0
   10.1281   -0.3813    0.0000 C   0  0  0  0  0  0  0  0  0  0  0  0
   10.8867   -0.0571    0.0000 C   0  0  0  0  0  0  0  0  0  0  0  0
   11.5468   -0.5520    0.0000 C   0  0  2  0  0  0  0  0  0  0  0  0
   12.3054   -0.2277    0.0000 C   0  0  0  0  0  0  0  0  0  0  0  0
   11.4483   -1.3711    0.0000 C   0  0  1  0  0  0  0  0  0  0  0  0
   12.1083   -1.8659    0.0000 O   0  0  0  0  0  0  0  0  0  0  0  0
   10.6896   -1.6953    0.0000 C   0  0  1  0  0  0  0  0  0  0  0  0
   10.0295   -1.2004    0.0000 C   0  0  0  0  0  0  0  0  0  0  0  0
    0.7586   -0.5008    0.0000 O   0  0  0  0  0  0  0  0  0  0  0  0
   -1.3202    0.1647    0.0000 C   0  0  0  0  0  0  0  0  0  0  0  0
   -1.2217    0.9838    0.0000 O   0  0  0  0  0  0  0  0  0  0  0  0
   -2.0788   -0.1595    0.0000 O   0  0  0  0  0  0  0  0  0  0  0  0
  2  1  1  6  0  0  0
  2  3  1  0  0  0  0
  3  4  1  0  0  0  0
  4  5  2  0  0  0  0
  4  6  1  0  0  0  0
  6  7  1  0  0  0  0
  7  8  1  1  0  0  0
  7  9  1  0  0  0  0
  9 10  1  0  0  0  0
 10 11  1  1  0  0  0
 10 12  1  0  0  0  0
 12 13  1  0  0  0  0
 13 14  1  0  0  0  0
 14 15  1  1  0  0  0
 14 16  1  0  0  0  0
 16 17  1  1  0  0  0
 16 18  1  0  0  0  0
 18 19  1  0  0  0  0
 19 20  1  1  0  0  0
 19 21  1  0  0  0  0
 21 22  1  0  0  0  0
 22 23  1  1  0  0  0
 22 24  1  0  0  0  0
 24 25  1  0  0  0  0
 25 26  1  6  0  0  0
 25 27  1  0  0  0  0
 27 28  1  0  0  0  0
 28 29  1  0  0  0  0
 29 30  1  0  0  0  0
 30 31  1  1  0  0  0
 32 31  1  1  0  0  0
 32 33  1  0  0  0  0
 33 34  1  0  0  0  0
 34 35  1  1  0  0  0
 34 36  1  0  0  0  0
 36 37  1  6  0  0  0
 36 38  1  0  0  0  0
 38 39  1  1  0  0  0
 38 40  1  0  0  0  0
 32 40  1  0  0  0  0
 40 41  1  1  0  0  0
 30 42  1  0  0  0  0
 42 43  2  0  0  0  0
 43 44  1  0  0  0  0
 44 45  2  0  0  0  0
 45 46  1  0  0  0  0
 46 47  2  0  0  0  0
 47 48  1  0  0  0  0
 48 49  2  0  0  0  0
 49 50  1  0  0  0  0
 50 51  2  0  0  0  0
 51 52  1  0  0  0  0
 52 53  2  0  0  0  0
 53 54  1  0  0  0  0
 54 55  2  0  0  0  0
 55 56  1  0  0  0  0
 56 57  1  6  0  0  0
 56 58  1  0  0  0  0
 58 59  1  1  0  0  0
 58 60  1  0  0  0  0
  2 60  1  0  0  0  0
 60 61  1  6  0  0  0
 28 62  1  6  0  0  0
 22 62  1  0  0  0  0
 27 63  1  1  0  0  0
 63 64  2  0  0  0  0
 63 65  1  0  0  0  0
M  END
> <COMPOUND_ID>
MMV689000

$$$$

  Mrv0541 04191616472D          

 19 20  0  0  0  0            999 V2000
    2.0367    2.0009    0.0000 C   0  0  0  0  0  0  0  0  0  0  0  0
    2.7512    2.4134    0.0000 C   0  0  0  0  0  0  0  0  0  0  0  0
    2.7512    3.2384    0.0000 C   0  0  0  0  0  0  0  0  0  0  0  0
    3.4656    3.6509    0.0000 S   0  0  0  0  0  0  0  0  0  0  0  0
    2.9353    4.2829    0.0000 O   0  0  0  0  0  0  0  0  0  0  0  0
    3.9959    4.2829    0.0000 O   0  0  0  0  0  0  0  0  0  0  0  0
    4.1801    3.2384    0.0000 C   0  0  0  0  0  0  0  0  0  0  0  0
    4.1801    2.4134    0.0000 C   0  0  0  0  0  0  0  0  0  0  0  0
    3.4656    2.0009    0.0000 N   0  0  0  0  0  0  0  0  0  0  0  0
    3.4656    1.1759    0.0000 N   0  0  0  0  0  0  0  0  0  0  0  0
    4.1801    0.7634    0.0000 C   0  0  0  0  0  0  0  0  0  0  0  0
    4.1801   -0.0616    0.0000 C   0  0  0  0  0  0  0  0  0  0  0  0
    4.8476   -0.5465    0.0000 O   0  0  0  0  0  0  0  0  0  0  0  0
    4.5926   -1.3312    0.0000 C   0  0  0  0  0  0  0  0  0  0  0  0
    3.7676   -1.3312    0.0000 C   0  0  0  0  0  0  0  0  0  0  0  0
    3.5127   -0.5465    0.0000 C   0  0  0  0  0  0  0  0  0  0  0  0
    5.0775   -1.9986    0.0000 N   0  3  0  0  0  0  0  0  0  0  0  0
    5.8980   -1.9124    0.0000 O   0  0  0  0  0  0  0  0  0  0  0  0
    4.7420   -2.7523    0.0000 O   0  5  0  0  0  0  0  0  0  0  0  0
  1  2  1  0  0  0  0
  2  3  1  0  0  0  0
  3  4  1  0  0  0  0
  4  5  2  0  0  0  0
  4  6  2  0  0  0  0
  4  7  1  0  0  0  0
  7  8  1  0  0  0  0
  8  9  1  0  0  0  0
  2  9  1  0  0  0  0
  9 10  1  0  0  0  0
 10 11  2  0  0  0  0
 11 12  1  0  0  0  0
 12 13  1  0  0  0  0
 13 14  1  0  0  0  0
 14 15  2  0  0  0  0
 15 16  1  0  0  0  0
 12 16  2  0  0  0  0
 14 17  1  0  0  0  0
 17 18  2  0  0  0  0
 17 19  1  0  0  0  0
M  CHG  2  17   1  19  -1
M  END
> <COMPOUND_ID>
MMV001499

$$$$

  Mrv0541 04191616472D          

 14 14  0  0  0  0            999 V2000
   -0.7145    3.7125    0.0000 C   0  0  0  0  0  0  0  0  0  0  0  0
    0.0000    3.3000    0.0000 C   0  0  0  0  0  0  0  0  0  0  0  0
    0.0000    2.4750    0.0000 N   0  0  0  0  0  0  0  0  0  0  0  0
   -0.7145    2.0625    0.0000 C   0  0  0  0  0  0  0  0  0  0  0  0
   -0.7145    1.2375    0.0000 C   0  0  0  0  0  0  0  0  0  0  0  0
    0.7145    2.0625    0.0000 C   0  0  0  0  0  0  0  0  0  0  0  0
    1.4289    2.4750    0.0000 O   0  0  0  0  0  0  0  0  0  0  0  0
    0.7145    1.2375    0.0000 N   0  0  0  0  0  0  0  0  0  0  0  0
    1.4289    0.8250    0.0000 C   0  0  0  0  0  0  0  0  0  0  0  0
    1.4289   -0.0000    0.0000 C   0  0  0  0  0  0  0  0  0  0  0  0
    0.7145   -0.4125    0.0000 N   0  0  0  0  0  0  0  0  0  0  0  0
    0.7145   -1.2375    0.0000 C   0  0  0  0  0  0  0  0  0  0  0  0
    0.0000    0.0000    0.0000 C   0  0  0  0  0  0  0  0  0  0  0  0
    0.0000    0.8250    0.0000 C   0  0  0  0  0  0  0  0  0  0  0  0
  1  2  1  0  0  0  0
  2  3  1  0  0  0  0
  3  4  1  0  0  0  0
  4  5  1  0  0  0  0
  3  6  1  0  0  0  0
  6  7  2  0  0  0  0
  6  8  1  0  0  0  0
  8  9  1  0  0  0  0
  9 10  1  0  0  0  0
 10 11  1  0  0  0  0
 11 12  1  0  0  0  0
 11 13  1  0  0  0  0
 13 14  1  0  0  0  0
  8 14  1  0  0  0  0
M  END
> <COMPOUND_ID>
MMV002816

$$$$

  Mrv0541 04191616472D          

 40 42  0  0  1  0            999 V2000
   -4.2868   -0.0000    0.0000 N   0  0  0  0  0  0  0  0  0  0  0  0
   -3.5724   -0.4125    0.0000 C   0  0  0  0  0  0  0  0  0  0  0  0
   -2.8579   -0.0000    0.0000 C   0  0  0  0  0  0  0  0  0  0  0  0
   -2.1434   -0.4125    0.0000 C   0  0  0  0  0  0  0  0  0  0  0  0
   -2.1434   -1.2375    0.0000 O   0  0  0  0  0  0  0  0  0  0  0  0
   -1.4289   -0.0000    0.0000 C   0  0  0  0  0  0  0  0  0  0  0  0
   -1.4289    0.8250    0.0000 O   0  0  0  0  0  0  0  0  0  0  0  0
   -0.7145   -0.4125    0.0000 N   0  0  0  0  0  0  0  0  0  0  0  0
   -0.7145   -1.2375    0.0000 C   0  0  2  0  0  0  0  0  0  0  0  0
   -1.4289   -1.6500    0.0000 C   0  0  0  0  0  0  0  0  0  0  0  0
   -1.4289   -2.4750    0.0000 C   0  0  2  0  0  0  0  0  0  0  0  0
   -2.1434   -2.8875    0.0000 N   0  0  0  0  0  0  0  0  0  0  0  0
   -0.7145   -2.8875    0.0000 C   0  0  1  0  0  0  0  0  0  0  0  0
   -0.7145   -3.7125    0.0000 O   0  0  0  0  0  0  0  0  0  0  0  0
   -0.0000   -4.1250    0.0000 C   0  0  0  0  0  0  0  0  0  0  0  0
    0.7145   -3.7125    0.0000 O   0  0  0  0  0  0  0  0  0  0  0  0
    1.4289   -4.1250    0.0000 C   0  0  2  0  0  0  0  0  0  0  0  0
    2.1434   -3.7125    0.0000 C   0  0  0  0  0  0  0  0  0  0  0  0
    2.1434   -2.8875    0.0000 N   0  0  0  0  0  0  0  0  0  0  0  0
    1.4289   -4.9500    0.0000 C   0  0  1  0  0  0  0  0  0  0  0  0
    2.1434   -5.3625    0.0000 O   0  0  0  0  0  0  0  0  0  0  0  0
    0.7145   -5.3625    0.0000 C   0  0  2  0  0  0  0  0  0  0  0  0
    0.7145   -6.1875    0.0000 O   0  0  0  0  0  0  0  0  0  0  0  0
   -0.0000   -4.9500    0.0000 C   0  0  1  0  0  0  0  0  0  0  0  0
   -0.7145   -5.3625    0.0000 O   0  0  0  0  0  0  0  0  0  0  0  0
   -0.0000   -2.4750    0.0000 C   0  0  2  0  0  0  0  0  0  0  0  0
    0.7145   -2.8875    0.0000 O   0  0  0  0  0  0  0  0  0  0  0  0
   -0.0000   -1.6500    0.0000 C   0  0  0  0  0  0  0  0  0  0  0  0
    0.7145   -1.2375    0.0000 O   0  0  0  0  0  0  0  0  0  0  0  0
    0.7145   -0.4125    0.0000 C   0  0  0  0  0  0  0  0  0  0  0  0
    0.0000   -0.0000    0.0000 O   0  0  0  0  0  0  0  0  0  0  0  0
    0.0000    0.8250    0.0000 C   0  0  2  0  0  0  0  0  0  0  0  0
   -0.7145    1.2375    0.0000 C   0  0  0  0  0  0  0  0  0  0  0  0
   -0.7145    2.0625    0.0000 O   0  0  0  0  0  0  0  0  0  0  0  0
    0.7145    1.2375    0.0000 C   0  0  1  0  0  0  0  0  0  0  0  0
    0.7145    2.0625    0.0000 O   0  0  0  0  0  0  0  0  0  0  0  0
    1.4289    0.8250    0.0000 C   0  0  2  0  0  0  0  0  0  0  0  0
    2.1434    1.2375    0.0000 N   0  0  0  0  0  0  0  0  0  0  0  0
    1.4289   -0.0000    0.0000 C   0  0  1  0  0  0  0  0  0  0  0  0
    2.1434   -0.4125    0.0000 O   0  0  0  0  0  0  0  0  0  0  0  0
  1  2  1  0  0  0  0
  2  3  1  0  0  0  0
  3  4  1  0  0  0  0
  4  5  1  0  0  0  0
  4  6  1  0  0  0  0
  6  7  2  0  0  0  0
  6  8  1  0  0  0  0
  9  8  1  1  0  0  0
  9 10  1  0  0  0  0
 10 11  1  0  0  0  0
 11 12  1  1  0  0  0
 11 13  1  0  0  0  0
 13 14  1  6  0  0  0
 14 15  1  0  0  0  0
 15 16  1  0  0  0  0
 16 17  1  0  0  0  0
 17 18  1  6  0  0  0
 18 19  1  0  0  0  0
 17 20  1  0  0  0  0
 20 21  1  1  0  0  0
 20 22  1  0  0  0  0
 22 23  1  6  0  0  0
 22 24  1  0  0  0  0
 15 24  1  0  0  0  0
 24 25  1  1  0  0  0
 13 26  1  0  0  0  0
 26 27  1  1  0  0  0
 26 28  1  0  0  0  0
  9 28  1  0  0  0  0
 28 29  1  0  0  0  0
 29 30  1  0  0  0  0
 30 31  1  0  0  0  0
 31 32  1  0  0  0  0
 32 33  1  6  0  0  0
 33 34  1  0  0  0  0
 32 35  1  0  0  0  0
 35 36  1  1  0  0  0
 35 37  1  0  0  0  0
 37 38  1  6  0  0  0
 37 39  1  0  0  0  0
 30 39  1  0  0  0  0
 39 40  1  1  0  0  0
M  END
> <COMPOUND_ID>
MMV687796

$$$$

  Mrv0541 04191616472D          

 32 32  0  0  1  0            999 V2000
   -1.9520    2.1730    0.0000 C   0  0  0  0  0  0  0  0  0  0  0  0
   -1.1270    2.1730    0.0000 C   0  0  0  0  0  0  0  0  0  0  0  0
   -0.7145    2.8875    0.0000 P   0  0  0  0  0  0  0  0  0  0  0  0
    0.0000    2.4750    0.0000 Au  0  0  0  0  0  0  0  0  0  0  0  0
    0.7145    2.0625    0.0000 S   0  0  0  0  0  0  0  0  0  0  0  0
    0.7145    1.2375    0.0000 C   0  0  1  0  0  0  0  0  0  0  0  0
    1.4289    0.8250    0.0000 O   0  0  0  0  0  0  0  0  0  0  0  0
    1.4289   -0.0000    0.0000 C   0  0  1  0  0  0  0  0  0  0  0  0
    2.1434   -0.4125    0.0000 C   0  0  0  0  0  0  0  0  0  0  0  0
    2.8579   -0.0000    0.0000 O   0  0  0  0  0  0  0  0  0  0  0  0
    3.5724   -0.4125    0.0000 C   0  0  0  0  0  0  0  0  0  0  0  0
    4.2868   -0.0000    0.0000 O   0  0  0  0  0  0  0  0  0  0  0  0
    3.5724   -1.2375    0.0000 C   0  0  0  0  0  0  0  0  0  0  0  0
    0.7145   -0.4125    0.0000 C   0  0  2  0  0  0  0  0  0  0  0  0
    0.7145   -1.2375    0.0000 O   0  0  0  0  0  0  0  0  0  0  0  0
    1.4289   -1.6500    0.0000 C   0  0  0  0  0  0  0  0  0  0  0  0
    2.1434   -1.2375    0.0000 O   0  0  0  0  0  0  0  0  0  0  0  0
    1.4289   -2.4750    0.0000 C   0  0  0  0  0  0  0  0  0  0  0  0
    0.0000    0.0000    0.0000 C   0  0  1  0  0  0  0  0  0  0  0  0
   -0.7145   -0.4125    0.0000 O   0  0  0  0  0  0  0  0  0  0  0  0
   -0.7145   -1.2375    0.0000 C   0  0  0  0  0  0  0  0  0  0  0  0
   -0.0000   -1.6500    0.0000 O   0  0  0  0  0  0  0  0  0  0  0  0
   -1.4289   -1.6500    0.0000 C   0  0  0  0  0  0  0  0  0  0  0  0
    0.0000    0.8250    0.0000 C   0  0  2  0  0  0  0  0  0  0  0  0
   -0.7145    1.2375    0.0000 O   0  0  0  0  0  0  0  0  0  0  0  0
   -1.4289    0.8250    0.0000 C   0  0  0  0  0  0  0  0  0  0  0  0
   -1.4289    0.0000    0.0000 O   0  0  0  0  0  0  0  0  0  0  0  0
   -2.1434    1.2375    0.0000 C   0  0  0  0  0  0  0  0  0  0  0  0
   -0.3020    3.6020    0.0000 C   0  0  0  0  0  0  0  0  0  0  0  0
    0.5230    3.6020    0.0000 C   0  0  0  0  0  0  0  0  0  0  0  0
   -1.4289    3.3000    0.0000 C   0  0  0  0  0  0  0  0  0  0  0  0
   -1.4289    4.1250    0.0000 C   0  0  0  0  0  0  0  0  0  0  0  0
  1  2  1  0  0  0  0
  2  3  1  0  0  0  0
  3  4  2  0  0  0  0
  4  5  1  0  0  0  0
  6  5  1  1  0  0  0
  6  7  1  0  0  0  0
  7  8  1  0  0  0  0
  8  9  1  1  0  0  0
  9 10  1  0  0  0  0
 10 11  1  0  0  0  0
 11 12  2  0  0  0  0
 11 13  1  0  0  0  0
  8 14  1  0  0  0  0
 14 15  1  6  0  0  0
 15 16  1  0  0  0  0
 16 17  2  0  0  0  0
 16 18  1  0  0  0  0
 14 19  1  0  0  0  0
 19 20  1  1  0  0  0
 20 21  1  0  0  0  0
 21 22  2  0  0  0  0
 21 23  1  0  0  0  0
 19 24  1  0  0  0  0
  6 24  1  0  0  0  0
 24 25  1  6  0  0  0
 25 26  1  0  0  0  0
 26 27  2  0  0  0  0
 26 28  1  0  0  0  0
  3 29  1  0  0  0  0
 29 30  1  0  0  0  0
  3 31  1  0  0  0  0
 31 32  1  0  0  0  0
M  END
> <COMPOUND_ID>
MMV688978

$$$$

  Mrv0541 04191616472D          

 27 26  0  0  0  0            999 V2000
    5.9961   -4.2868    0.0000 C   0  0  0  0  0  0  0  0  0  0  0  0
    6.7105   -4.6993    0.0000 C   0  0  0  0  0  0  0  0  0  0  0  0
    7.4250   -4.2868    0.0000 C   0  0  0  0  0  0  0  0  0  0  0  0
    8.1395   -4.6993    0.0000 C   0  0  0  0  0  0  0  0  0  0  0  0
    8.8539   -4.2868    0.0000 C   0  0  0  0  0  0  0  0  0  0  0  0
    9.5684   -4.6993    0.0000 C   0  0  0  0  0  0  0  0  0  0  0  0
   10.2829   -4.2868    0.0000 C   0  0  0  0  0  0  0  0  0  0  0  0
   10.9974   -4.6993    0.0000 C   0  0  0  0  0  0  0  0  0  0  0  0
   11.7118   -4.2868    0.0000 C   0  0  0  0  0  0  0  0  0  0  0  0
   12.4263   -4.6993    0.0000 C   0  0  0  0  0  0  0  0  0  0  0  0
   13.1408   -4.2868    0.0000 C   0  0  0  0  0  0  0  0  0  0  0  0
   13.8552   -4.6993    0.0000 C   0  0  0  0  0  0  0  0  0  0  0  0
   14.5697   -4.2868    0.0000 C   0  0  0  0  0  0  0  0  0  0  0  0
   15.2842   -4.6993    0.0000 C   0  0  0  0  0  0  0  0  0  0  0  0
   15.9987   -4.2868    0.0000 C   0  0  0  0  0  0  0  0  0  0  0  0
   16.7131   -4.6993    0.0000 C   0  0  0  0  0  0  0  0  0  0  0  0
   17.4276   -4.2868    0.0000 O   0  0  0  0  0  0  0  0  0  0  0  0
   18.1421   -4.6993    0.0000 P   0  0  0  0  0  0  0  0  0  0  0  0
   17.7296   -5.4138    0.0000 O   0  0  0  0  0  0  0  0  0  0  0  0
   18.5546   -3.9849    0.0000 O   0  5  0  0  0  0  0  0  0  0  0  0
   18.8565   -5.1118    0.0000 O   0  0  0  0  0  0  0  0  0  0  0  0
   19.5710   -4.6993    0.0000 C   0  0  0  0  0  0  0  0  0  0  0  0
   20.2855   -5.1118    0.0000 C   0  0  0  0  0  0  0  0  0  0  0  0
   20.9999   -4.6993    0.0000 N   0  3  0  0  0  0  0  0  0  0  0  0
   21.7144   -4.2868    0.0000 C   0  0  0  0  0  0  0  0  0  0  0  0
   21.4124   -5.4138    0.0000 C   0  0  0  0  0  0  0  0  0  0  0  0
   20.5874   -3.9849    0.0000 C   0  0  0  0  0  0  0  0  0  0  0  0
  1  2  1  0  0  0  0
  2  3  1  0  0  0  0
  3  4  1  0  0  0  0
  4  5  1  0  0  0  0
  5  6  1  0  0  0  0
  6  7  1  0  0  0  0
  7  8  1  0  0  0  0
  8  9  1  0  0  0  0
  9 10  1  0  0  0  0
 10 11  1  0  0  0  0
 11 12  1  0  0  0  0
 12 13  1  0  0  0  0
 13 14  1  0  0  0  0
 14 15  1  0  0  0  0
 15 16  1  0  0  0  0
 16 17  1  0  0  0  0
 17 18  1  0  0  0  0
 18 19  2  0  0  0  0
 18 20  1  0  0  0  0
 18 21  1  0  0  0  0
 21 22  1  0  0  0  0
 22 23  1  0  0  0  0
 23 24  1  0  0  0  0
 24 25  1  0  0  0  0
 24 26  1  0  0  0  0
 24 27  1  0  0  0  0
M  CHG  2  20  -1  24   1
M  END
> <COMPOUND_ID>
MMV688990

$$$$
