
  SciTegic03121405392D

 27 29  0  0  0  0            999 V2000
    7.8542   -6.6500    0.0000 C   0  0
    7.8542   -7.4751    0.0000 N   0  0
    7.8584   -9.9459    0.0000 N   0  0
    8.5667   -6.2375    0.0000 O   0  0
    7.8542   -9.1209    0.0000 C   0  0
    7.1459  -10.3626    0.0000 C   0  0
    8.5667   -7.8876    0.0000 C   0  0
    7.1375   -7.8876    0.0000 C   0  0
    8.5667   -8.7084    0.0000 C   0  0
    7.1375   -8.7167    0.0000 C   0  0
    7.1375   -6.2375    0.0000 O   0  0
    8.5751  -10.3543    0.0000 C   0  0
    9.2876  -11.5876    0.0000 N   0  0
    8.5667   -5.4125    0.0000 C   0  0
    6.4292   -9.9501    0.0000 C   0  0
    7.1459  -11.1918    0.0000 C   0  0
    5.7167  -11.1918    0.0000 C   0  0
    5.7167  -10.3668    0.0000 C   0  0
    6.4292  -11.6043    0.0000 C   0  0
    5.0000  -11.6043    0.0000 Cl  0  0
    8.5751  -11.1793    0.0000 C   0  0
   10.0043  -11.1710    0.0000 C   0  0
    7.8542   -5.0000    0.0000 C   0  0
    9.3626   -5.6250    0.0000 C   0  0
    9.2834   -5.0000    0.0000 C   0  0
    9.2792   -9.9376    0.0000 C   0  0
    9.9959  -10.3418    0.0000 C   0  0
  2  1  1  0
  3  5  1  0
  4  1  1  0
  5 10  1  0
  6  3  1  0
  7  2  1  0
  8  2  1  0
  9  7  1  0
 10  8  1  0
 11  1  2  0
 12  3  1  0
 13 21  1  0
 14  4  1  0
 15  6  2  0
 16  6  1  0
 17 18  2  0
 18 15  1  0
 19 16  2  0
 20 17  1  0
 21 12  2  0
 22 27  1  0
 23 14  1  0
 24 14  1  0
 25 14  1  0
 26 12  1  0
 27 26  2  0
  9  5  1  0
 19 17  1  0
 22 13  2  0
M  END
> <COMPOUND_ID>
DNDI1551242

$$$$

  SciTegic03121405392D

 24 26  0  0  0  0            999 V2000
    7.8538   -5.8249    0.0000 S   0  0
    7.8538   -6.6498    0.0000 N   0  0
    7.8580   -9.1204    0.0000 N   0  0
    7.0289   -5.8249    0.0000 O   0  0
    8.6787   -5.8249    0.0000 O   0  0
    7.8538   -8.2955    0.0000 C   0  0
    7.1456   -9.5370    0.0000 C   0  0
    7.1372   -7.0623    0.0000 C   0  0
    8.5662   -7.0623    0.0000 C   0  0
    7.1372   -7.8913    0.0000 C   0  0
    8.5662   -7.8830    0.0000 C   0  0
    8.5746   -9.5286    0.0000 C   0  0
    9.2870  -10.7618    0.0000 N   0  0
    7.1456  -10.3660    0.0000 C   0  0
    6.4290   -9.1245    0.0000 C   0  0
    7.8538   -5.0000    0.0000 C   0  0
    5.7166  -10.3660    0.0000 C   0  0
    5.7166   -9.5370    0.0000 C   0  0
    6.4290  -10.7785    0.0000 C   0  0
    5.0000  -10.7785    0.0000 Cl  0  0
    8.5746  -10.3535    0.0000 C   0  0
   10.0036  -10.3452    0.0000 C   0  0
    9.2787   -9.1120    0.0000 C   0  0
    9.9952   -9.5161    0.0000 C   0  0
  2  1  1  0
  3  6  1  0
  4  1  2  0
  5  1  2  0
  6 10  1  0
  7  3  1  0
  8  2  1  0
  9  2  1  0
 10  8  1  0
 11  9  1  0
 12  3  1  0
 13 21  1  0
 14  7  1  0
 15  7  2  0
 16  1  1  0
 17 18  2  0
 18 15  1  0
 19 14  2  0
 20 17  1  0
 21 12  2  0
 22 24  1  0
 23 12  1  0
 24 23  2  0
 11  6  1  0
 19 17  1  0
 22 13  2  0
M  END
> <COMPOUND_ID>
DNDI1551249

$$$$

  SciTegic03121405392D

 27 29  0  0  0  0            999 V2000
    7.8538   -6.6206    0.0000 N   0  0
    7.8538   -5.7957    0.0000 C   0  0
    7.8580   -9.0912    0.0000 N   0  0
    7.8538   -8.2662    0.0000 C   0  0
    8.5663   -5.3832    0.0000 C   0  0
    7.1456   -9.5078    0.0000 C   0  0
    8.5663   -7.8538    0.0000 C   0  0
    7.1373   -7.8621    0.0000 C   0  0
    7.1373   -7.0331    0.0000 C   0  0
    8.5663   -7.0331    0.0000 C   0  0
    7.1373   -5.3832    0.0000 O   0  0
    8.5746   -9.4994    0.0000 C   0  0
    9.2870  -10.7326    0.0000 N   0  0
    9.2828   -5.7957    0.0000 C   0  0
    6.4290   -9.0953    0.0000 C   0  0
    7.1456  -10.3368    0.0000 C   0  0
    5.7166  -10.3368    0.0000 C   0  0
    5.7166   -9.5078    0.0000 C   0  0
    6.4290  -10.7493    0.0000 C   0  0
    5.0000  -10.7493    0.0000 Cl  0  0
    8.5746  -10.3243    0.0000 C   0  0
   10.0036  -10.3160    0.0000 C   0  0
    9.9953   -5.3832    0.0000 C   0  0
    9.2828   -6.6206    0.0000 C   0  0
    9.0662   -5.0000    0.0000 C   0  0
    9.2787   -9.0828    0.0000 C   0  0
    9.9953   -9.4869    0.0000 C   0  0
  2  1  1  0
  3  4  1  0
  4  8  1  0
  5  2  1  0
  6  3  1  0
  7 10  1  0
  8  9  1  0
  9  1  1  0
 10  1  1  0
 11  2  2  0
 12  3  1  0
 13 21  1  0
 14  5  1  0
 15  6  2  0
 16  6  1  0
 17 18  2  0
 18 15  1  0
 19 16  2  0
 20 17  1  0
 21 12  2  0
 22 27  1  0
 23 14  1  0
 24 14  1  0
 25 14  1  0
 26 12  1  0
 27 26  2  0
  7  4  1  0
 19 17  1  0
 22 13  2  0
M  END
> <COMPOUND_ID>
DNDI1551250

$$$$

  SciTegic03121405392D

 25 28  0  0  0  0            999 V2000
    7.8546   -6.1293    0.0000 C   0  0
    7.8546   -6.9544    0.0000 N   0  0
    8.5672   -5.7168    0.0000 C   0  0
    7.8587   -9.4256    0.0000 N   0  0
    9.3881   -5.7126    0.0000 C   0  0
    8.9756   -5.0000    0.0000 C   0  0
    7.8546   -8.6005    0.0000 C   0  0
    7.1461   -9.8424    0.0000 C   0  0
    8.5672   -8.1880    0.0000 C   0  0
    7.1378   -8.1963    0.0000 C   0  0
    7.1378   -7.3670    0.0000 C   0  0
    8.5672   -7.3670    0.0000 C   0  0
    7.1378   -5.7168    0.0000 O   0  0
    8.5755   -9.8340    0.0000 C   0  0
    9.2881  -11.0675    0.0000 N   0  0
    7.1461  -10.6716    0.0000 C   0  0
    6.4294   -9.4298    0.0000 C   0  0
    5.7168  -10.6716    0.0000 C   0  0
    6.4294  -11.0842    0.0000 C   0  0
    5.7168   -9.8424    0.0000 C   0  0
    5.0000  -11.0842    0.0000 Cl  0  0
    8.5755  -10.6591    0.0000 C   0  0
   10.0049  -10.6508    0.0000 C   0  0
    9.2798   -9.4173    0.0000 C   0  0
    9.9966   -9.8215    0.0000 C   0  0
  2  1  1  0
  3  1  1  0
  4  7  1  0
  5  3  1  0
  6  3  1  0
  7 10  1  0
  8  4  1  0
  9 12  1  0
 10 11  1  0
 11  2  1  0
 12  2  1  0
 13  1  2  0
 14  4  1  0
 15 22  1  0
 16  8  1  0
 17  8  2  0
 18 20  2  0
 19 16  2  0
 20 17  1  0
 21 18  1  0
 22 14  2  0
 23 25  1  0
 24 14  1  0
 25 24  2  0
  5  6  1  0
  9  7  1  0
 19 18  1  0
 23 15  2  0
M  END
> <COMPOUND_ID>
DNDI1551251

$$$$

  SciTegic03121405392D

 28 31  0  0  0  0            999 V2000
    7.8536   -6.6497    0.0000 C   0  0
    7.8536   -7.4746    0.0000 N   0  0
    7.8578   -9.9450    0.0000 N   0  0
    7.8536   -9.1201    0.0000 C   0  0
    7.1454  -10.3616    0.0000 C   0  0
    7.1371   -8.7160    0.0000 C   0  0
    8.5660   -8.7077    0.0000 C   0  0
    8.5660   -7.8870    0.0000 C   0  0
    7.1371   -7.8870    0.0000 C   0  0
    7.1371   -6.2373    0.0000 O   0  0
    8.5660   -6.2373    0.0000 C   0  0
    8.5743  -10.3532    0.0000 C   0  0
    9.2867  -11.5863    0.0000 N   0  0
    7.1454  -11.1906    0.0000 C   0  0
    6.4289   -9.9491    0.0000 C   0  0
    5.7165  -11.1906    0.0000 C   0  0
    6.4289  -11.6030    0.0000 C   0  0
    5.7165  -10.3616    0.0000 C   0  0
    5.0000  -11.6030    0.0000 Cl  0  0
    8.5743  -11.1781    0.0000 C   0  0
   10.0033  -11.1697    0.0000 C   0  0
    9.2784   -6.6497    0.0000 C   0  0
    8.5619   -5.4166    0.0000 C   0  0
    9.2784   -9.9366    0.0000 C   0  0
    9.9949  -10.3407    0.0000 C   0  0
    9.2742   -5.0000    0.0000 C   0  0
    9.9949   -6.2373    0.0000 C   0  0
    9.9949   -5.4125    0.0000 C   0  0
  2  1  1  0
  3  4  1  0
  4  7  1  0
  5  3  1  0
  6  9  1  0
  7  8  1  0
  8  2  1  0
  9  2  1  0
 10  1  2  0
 11  1  1  0
 12  3  1  0
 13 20  1  0
 14  5  1  0
 15  5  2  0
 16 18  2  0
 17 14  2  0
 18 15  1  0
 19 16  1  0
 20 12  2  0
 21 25  1  0
 22 11  2  0
 23 11  1  0
 24 12  1  0
 25 24  2  0
 26 23  2  0
 27 22  1  0
 28 26  1  0
  6  4  1  0
 28 27  2  0
 17 16  1  0
 21 13  2  0
M  END
> <COMPOUND_ID>
DNDI1551252

$$$$

  SciTegic03121405392D

 30 32  0  0  0  0            999 V2000
    8.5670   -5.7959    0.0000 C   0  0
    8.5670   -6.6210    0.0000 N   0  0
    5.7126  -10.7505    0.0000 C   0  0
    8.5712   -9.0920    0.0000 N   0  0
    9.2795   -5.3834    0.0000 O   0  0
    6.4293  -10.3380    0.0000 C   0  0
    8.5670   -8.2670    0.0000 C   0  0
    7.8586   -9.5087    0.0000 C   0  0
    7.8503   -7.0335    0.0000 C   0  0
    9.2795   -7.0335    0.0000 C   0  0
    7.8503   -7.8628    0.0000 C   0  0
    9.2795   -7.8544    0.0000 C   0  0
    7.8503   -5.3834    0.0000 O   0  0
    9.2879   -9.5004    0.0000 C   0  0
   10.0004  -10.7339    0.0000 N   0  0
    9.9963   -5.7959    0.0000 C   0  0
    7.1419  -10.7505    0.0000 C   0  0
    6.4293   -9.5129    0.0000 C   0  0
    7.8586  -10.3380    0.0000 C   0  0
    7.1419   -9.0962    0.0000 C   0  0
    5.0000  -10.3380    0.0000 F   0  0
    5.7126  -11.5756    0.0000 F   0  0
    5.5000   -9.9546    0.0000 F   0  0
    9.2879  -10.3255    0.0000 C   0  0
   10.7172  -10.3172    0.0000 C   0  0
    9.9963   -6.6210    0.0000 C   0  0
    9.7796   -5.0000    0.0000 C   0  0
   10.7088   -5.3834    0.0000 C   0  0
    9.9921   -9.0837    0.0000 C   0  0
   10.7088   -9.4879    0.0000 C   0  0
  2  1  1  0
  3  6  1  0
  4  7  1  0
  5  1  1  0
  6 18  2  0
  7 11  1  0
  8  4  1  0
  9  2  1  0
 10  2  1  0
 11  9  1  0
 12 10  1  0
 13  1  2  0
 14  4  1  0
 15 24  1  0
 16  5  1  0
 17 19  2  0
 18 20  1  0
 19  8  1  0
 20  8  2  0
 21  3  1  0
 22  3  1  0
 23  3  1  0
 24 14  2  0
 25 30  1  0
 26 16  1  0
 27 16  1  0
 28 16  1  0
 29 14  1  0
 30 29  2  0
 12  7  1  0
 17  6  1  0
 25 15  2  0
M  END
> <COMPOUND_ID>
DNDI1578291

$$$$

  SciTegic03121405392D

 29 31  0  0  0  0            999 V2000
    8.5666   -6.2375    0.0000 C   0  0
    8.5666   -7.0625    0.0000 N   0  0
    5.7125  -11.1916    0.0000 C   0  0
    8.5708   -9.5333    0.0000 N   0  0
    9.2791   -5.8250    0.0000 C   0  0
    6.4291  -10.7791    0.0000 C   0  0
    8.5666   -8.7083    0.0000 C   0  0
    7.8583   -9.9500    0.0000 C   0  0
    7.8500   -8.3041    0.0000 C   0  0
    9.2791   -8.2958    0.0000 C   0  0
    9.2791   -7.4750    0.0000 C   0  0
    7.8500   -7.4750    0.0000 C   0  0
    7.8500   -5.8250    0.0000 O   0  0
    9.2874   -9.9416    0.0000 C   0  0
    9.9999  -11.1749    0.0000 N   0  0
    6.4291   -9.9500    0.0000 C   0  0
    7.1416  -11.1916    0.0000 C   0  0
    7.1416   -9.5375    0.0000 C   0  0
    7.8583  -10.7791    0.0000 C   0  0
    5.0000  -10.7791    0.0000 F   0  0
    5.7125  -12.0166    0.0000 F   0  0
    5.5000  -10.3958    0.0000 F   0  0
    9.2874  -10.7666    0.0000 C   0  0
    9.9958   -6.2375    0.0000 C   0  0
    9.2791   -5.0000    0.0000 C   0  0
    9.4916   -6.6208    0.0000 C   0  0
   10.7166  -10.7583    0.0000 C   0  0
    9.9916   -9.5250    0.0000 C   0  0
   10.7083   -9.9291    0.0000 C   0  0
  2  1  1  0
  3  6  1  0
  4  7  1  0
  5  1  1  0
  6 16  2  0
  7  9  1  0
  8  4  1  0
  9 12  1  0
 10 11  1  0
 11  2  1  0
 12  2  1  0
 13  1  2  0
 14  4  1  0
 15 23  1  0
 16 18  1  0
 17 19  2  0
 18  8  2  0
 19  8  1  0
 20  3  1  0
 21  3  1  0
 22  3  1  0
 23 14  2  0
 24  5  1  0
 25  5  1  0
 26  5  1  0
 27 29  1  0
 28 14  1  0
 29 28  2  0
 10  7  1  0
 17  6  1  0
 27 15  2  0
M  END
> <COMPOUND_ID>
DNDI1596467

$$$$

  SciTegic03121405392D

 35 38  0  0  0  0            999 V2000
    8.5670   -7.4711    0.0000 C   0  0
    8.5628   -5.8251    0.0000 C   0  0
    9.2795   -7.0585    0.0000 C   0  0
    8.5670   -8.2961    0.0000 N   0  0
    5.7126  -12.4256    0.0000 C   0  0
    9.2754   -6.2376    0.0000 C   0  0
    8.5711  -10.7672    0.0000 N   0  0
    6.4293  -12.0131    0.0000 C   0  0
    8.5670   -9.9421    0.0000 C   0  0
    7.8586  -11.1839    0.0000 C   0  0
    7.8502   -8.7087    0.0000 C   0  0
    9.2795   -8.7087    0.0000 C   0  0
    7.8502   -9.5379    0.0000 C   0  0
    9.2795   -9.5296    0.0000 C   0  0
    7.8502   -7.0585    0.0000 O   0  0
    9.2879  -11.1755    0.0000 C   0  0
   10.0004  -12.4090    0.0000 N   0  0
    6.4293  -11.1839    0.0000 C   0  0
    7.1418  -12.4256    0.0000 C   0  0
    8.5586   -5.0000    0.0000 F   0  0
    7.8502   -6.2418    0.0000 F   0  0
    9.1420   -5.2417    0.0000 F   0  0
    7.8586  -12.0131    0.0000 C   0  0
    7.1418  -10.7713    0.0000 C   0  0
    5.5000  -11.6297    0.0000 F   0  0
    5.0000  -12.0131    0.0000 F   0  0
    5.7126  -13.2507    0.0000 F   0  0
    9.9921   -7.4711    0.0000 C   0  0
    9.2879  -12.0006    0.0000 C   0  0
    9.9879   -5.8209    0.0000 C   0  0
   10.7171  -11.9923    0.0000 C   0  0
    9.9921  -10.7588    0.0000 C   0  0
   10.7088  -11.1630    0.0000 C   0  0
   10.7088   -7.0585    0.0000 C   0  0
   10.7088   -6.2334    0.0000 C   0  0
  2  6  1  0
  3  1  1  0
  4  1  1  0
  5  8  1  0
  6  3  1  0
  7  9  1  0
  8 18  2  0
  9 13  1  0
 10  7  1  0
 11  4  1  0
 12  4  1  0
 13 11  1  0
 14 12  1  0
 15  1  2  0
 16  7  1  0
 17 29  1  0
 18 24  1  0
 19 23  2  0
 20  2  1  0
 21  2  1  0
 22  2  1  0
 23 10  1  0
 24 10  2  0
 25  5  1  0
 26  5  1  0
 27  5  1  0
 28  3  2  0
 29 16  2  0
 30  6  2  0
 31 33  1  0
 32 16  1  0
 33 32  2  0
 34 28  1  0
 35 30  1  0
 14  9  1  0
 35 34  2  0
 19  8  1  0
 31 17  2  0
M  END
> <COMPOUND_ID>
DNDI1596468

$$$$

  SciTegic03121405392D

 32 35  0  0  0  0            999 V2000
    9.2792   -6.3749    0.0000 C   0  0
    8.5667   -6.7874    0.0000 C   0  0
   10.1708   -5.3791    0.0000 N   0  0
    8.5667   -7.6124    0.0000 N   0  0
    5.7125  -11.7416    0.0000 C   0  0
   10.0333   -6.7083    0.0000 C   0  0
   10.5833   -6.0958    0.0000 O   0  0
    9.3625   -5.5500    0.0000 C   0  0
    8.5708  -10.0833    0.0000 N   0  0
    6.4292  -11.3291    0.0000 C   0  0
    8.5667   -9.2583    0.0000 C   0  0
    7.8583  -10.4999    0.0000 C   0  0
    7.8500   -6.3749    0.0000 O   0  0
    9.2792   -8.0249    0.0000 C   0  0
    7.8500   -8.0249    0.0000 C   0  0
    9.2792   -8.8458    0.0000 C   0  0
    7.8500   -8.8541    0.0000 C   0  0
    9.2875  -10.4916    0.0000 C   0  0
   10.0000  -11.7249    0.0000 N   0  0
    6.4292  -10.4999    0.0000 C   0  0
    7.1417  -11.7416    0.0000 C   0  0
    7.1417  -10.0874    0.0000 C   0  0
    7.8583  -11.3291    0.0000 C   0  0
    5.7125  -12.5666    0.0000 F   0  0
    5.5000  -10.9458    0.0000 F   0  0
    5.0000  -11.3291    0.0000 F   0  0
    9.2875  -11.3166    0.0000 C   0  0
   10.2042   -7.5124    0.0000 C   0  0
    8.7500   -5.0000    0.0000 C   0  0
   10.7167  -11.3083    0.0000 C   0  0
    9.9917  -10.0749    0.0000 C   0  0
   10.7083  -10.4791    0.0000 C   0  0
  2  1  1  0
  3  8  2  0
  4  2  1  0
  5 10  1  0
  6  1  2  0
  7  6  1  0
  8  1  1  0
  9 11  1  0
 10 20  2  0
 11 17  1  0
 12  9  1  0
 13  2  2  0
 14  4  1  0
 15  4  1  0
 16 14  1  0
 17 15  1  0
 18  9  1  0
 19 27  1  0
 20 22  1  0
 21 23  2  0
 22 12  2  0
 23 12  1  0
 24  5  1  0
 25  5  1  0
 26  5  1  0
 27 18  2  0
 28  6  1  0
 29  8  1  0
 30 32  1  0
 31 18  1  0
 32 31  2  0
  3  7  1  0
 16 11  1  0
 21 10  1  0
 30 19  2  0
M  END
> <COMPOUND_ID>
DNDI1596469

$$$$

  SciTegic03121405392D

 31 34  0  0  0  0            999 V2000
    9.2787   -6.3749    0.0000 C   0  0
    8.5663   -6.7873    0.0000 C   0  0
    8.5663   -7.6123    0.0000 N   0  0
    5.7124  -11.7410    0.0000 C   0  0
    9.3620   -5.5500    0.0000 C   0  0
   10.1703   -5.3792    0.0000 N   0  0
   10.0328   -6.7082    0.0000 S   0  0
    8.5705  -10.0828    0.0000 N   0  0
   10.5827   -6.0958    0.0000 C   0  0
    6.4290  -11.3285    0.0000 C   0  0
    8.5663   -9.2579    0.0000 C   0  0
    7.8580  -10.4995    0.0000 C   0  0
    7.8497   -6.3749    0.0000 O   0  0
    9.2787   -8.0247    0.0000 C   0  0
    7.8497   -8.0247    0.0000 C   0  0
    9.2787   -8.8455    0.0000 C   0  0
    7.8497   -8.8538    0.0000 C   0  0
    9.2870  -10.4911    0.0000 C   0  0
    9.9995  -11.7243    0.0000 N   0  0
    6.4290  -10.4995    0.0000 C   0  0
    7.1414  -11.7410    0.0000 C   0  0
    7.1414  -10.0870    0.0000 C   0  0
    7.8580  -11.3285    0.0000 C   0  0
    5.7124  -12.5659    0.0000 F   0  0
    5.4999  -10.9452    0.0000 F   0  0
    5.0000  -11.3285    0.0000 F   0  0
    9.2870  -11.3160    0.0000 C   0  0
    8.7496   -5.0000    0.0000 C   0  0
   10.7161  -11.3077    0.0000 C   0  0
    9.9911  -10.0745    0.0000 C   0  0
   10.7077  -10.4786    0.0000 C   0  0
  2  1  1  0
  3  2  1  0
  4 10  1  0
  5  1  2  0
  6  5  1  0
  7  1  1  0
  8 11  1  0
  9  7  1  0
 10 20  2  0
 11 17  1  0
 12  8  1  0
 13  2  2  0
 14  3  1  0
 15  3  1  0
 16 14  1  0
 17 15  1  0
 18  8  1  0
 19 27  1  0
 20 22  1  0
 21 23  2  0
 22 12  2  0
 23 12  1  0
 24  4  1  0
 25  4  1  0
 26  4  1  0
 27 18  2  0
 28  5  1  0
 29 31  1  0
 30 18  1  0
 31 30  2  0
  6  9  2  0
 16 11  1  0
 21 10  1  0
 29 19  2  0
M  END
> <COMPOUND_ID>
DNDI1596470

$$$$

  SciTegic03121405392D

 31 34  0  0  0  0            999 V2000
    8.5665   -6.6499    0.0000 C   0  0
    8.5665   -7.4748    0.0000 N   0  0
    5.7125  -11.6037    0.0000 C   0  0
    8.5706   -9.9455    0.0000 N   0  0
    6.4291  -11.1913    0.0000 C   0  0
    8.5665   -9.1206    0.0000 C   0  0
    7.8582  -10.3622    0.0000 C   0  0
    9.2789   -8.7081    0.0000 C   0  0
    7.8498   -8.7164    0.0000 C   0  0
    7.8498   -7.8873    0.0000 C   0  0
    9.2789   -7.8873    0.0000 C   0  0
    7.8498   -6.2374    0.0000 O   0  0
    9.2789   -6.2374    0.0000 C   0  0
    9.2872  -10.3538    0.0000 C   0  0
    9.9997  -11.5871    0.0000 N   0  0
    6.4291  -10.3622    0.0000 C   0  0
    7.1415  -11.6037    0.0000 C   0  0
    7.1415   -9.9497    0.0000 C   0  0
    7.8582  -11.1913    0.0000 C   0  0
    5.0000  -11.1913    0.0000 F   0  0
    5.7125  -12.4287    0.0000 F   0  0
    5.5000  -10.8080    0.0000 F   0  0
    9.2872  -11.1788    0.0000 C   0  0
   10.7163  -11.1704    0.0000 C   0  0
    9.9914   -6.6499    0.0000 C   0  0
    9.2747   -5.4166    0.0000 C   0  0
    9.9914   -9.9372    0.0000 C   0  0
   10.7080  -10.3413    0.0000 C   0  0
    9.9872   -5.0000    0.0000 C   0  0
   10.7080   -6.2374    0.0000 C   0  0
   10.7080   -5.4125    0.0000 C   0  0
  2  1  1  0
  3  5  1  0
  4  6  1  0
  5 16  2  0
  6  9  1  0
  7  4  1  0
  8 11  1  0
  9 10  1  0
 10  2  1  0
 11  2  1  0
 12  1  2  0
 13  1  1  0
 14  4  1  0
 15 23  1  0
 16 18  1  0
 17 19  2  0
 18  7  2  0
 19  7  1  0
 20  3  1  0
 21  3  1  0
 22  3  1  0
 23 14  2  0
 24 28  1  0
 25 13  2  0
 26 13  1  0
 27 14  1  0
 28 27  2  0
 29 26  2  0
 30 25  1  0
 31 29  1  0
  8  6  1  0
 31 30  2  0
 17  5  1  0
 24 15  2  0
M  END
> <COMPOUND_ID>
DNDI1596471

$$$$

  SciTegic03121405392D

 32 35  0  0  0  0            999 V2000
    8.5667   -6.6500    0.0000 C   0  0
    8.5667   -7.4750    0.0000 N   0  0
    5.7125  -11.6042    0.0000 C   0  0
    8.5708   -9.9459    0.0000 N   0  0
    6.4292  -11.1917    0.0000 C   0  0
    9.2792   -6.2375    0.0000 C   0  0
    8.5667   -9.1209    0.0000 C   0  0
    7.8583  -10.3625    0.0000 C   0  0
    7.8500   -8.7167    0.0000 C   0  0
    9.2792   -8.7084    0.0000 C   0  0
    9.2792   -7.8875    0.0000 C   0  0
    7.8500   -7.8875    0.0000 C   0  0
    7.8500   -6.2375    0.0000 O   0  0
    9.2875  -10.3542    0.0000 C   0  0
   10.0000  -11.5875    0.0000 N   0  0
    6.4292  -10.3625    0.0000 C   0  0
    7.1417  -11.6042    0.0000 C   0  0
    7.1417   -9.9500    0.0000 C   0  0
    7.8583  -11.1917    0.0000 C   0  0
    5.0000  -11.1917    0.0000 F   0  0
    5.7125  -12.4292    0.0000 F   0  0
    5.5000  -10.8084    0.0000 F   0  0
    9.9917   -6.6500    0.0000 C   0  0
    9.2750   -5.4167    0.0000 C   0  0
   10.7083   -5.4125    0.0000 C   0  0
    9.9875   -5.0000    0.0000 C   0  0
   10.7083   -6.2375    0.0000 C   0  0
   11.4208   -5.0000    0.0000 F   0  0
    9.2875  -11.1792    0.0000 C   0  0
   10.7167  -11.1709    0.0000 C   0  0
    9.9917   -9.9375    0.0000 C   0  0
   10.7083  -10.3417    0.0000 C   0  0
  2  1  1  0
  3  5  1  0
  4  7  1  0
  5 16  2  0
  6  1  1  0
  7  9  1  0
  8  4  1  0
  9 12  1  0
 10 11  1  0
 11  2  1  0
 12  2  1  0
 13  1  2  0
 14  4  1  0
 15 29  1  0
 16 18  1  0
 17 19  2  0
 18  8  2  0
 19  8  1  0
 20  3  1  0
 21  3  1  0
 22  3  1  0
 23  6  2  0
 24  6  1  0
 25 26  1  0
 26 24  2  0
 27 23  1  0
 28 25  1  0
 29 14  2  0
 30 32  1  0
 31 14  1  0
 32 31  2  0
 10  7  1  0
 25 27  2  0
 17  5  1  0
 30 15  2  0
M  END
> <COMPOUND_ID>
DNDI1596472

$$$$

  SciTegic03121405392D

 33 36  0  0  0  0            999 V2000
    8.5676   -5.4126    0.0000 C   0  0
    5.7127  -12.8395    0.0000 C   0  0
    8.5676   -8.7093    0.0000 N   0  0
    8.5717  -11.1807    0.0000 N   0  0
    6.4295  -12.4269    0.0000 C   0  0
    8.5676   -6.2379    0.0000 C   0  0
    8.5676   -7.8841    0.0000 C   0  0
    8.5676  -10.3555    0.0000 C   0  0
    7.8590  -11.5975    0.0000 C   0  0
    9.2802   -9.9429    0.0000 C   0  0
    7.8507   -9.9513    0.0000 C   0  0
    7.8507   -9.1219    0.0000 C   0  0
    9.2802   -9.1219    0.0000 C   0  0
    9.2886  -11.5892    0.0000 C   0  0
   10.0012  -12.8228    0.0000 N   0  0
    7.1422  -12.8395    0.0000 C   0  0
    7.8507   -6.6546    0.0000 C   0  0
    6.4295  -11.5975    0.0000 C   0  0
    9.2844   -6.6505    0.0000 C   0  0
    9.2802   -7.4757    0.0000 C   0  0
    7.8549   -7.4757    0.0000 C   0  0
    7.1422  -11.1849    0.0000 C   0  0
    7.8590  -12.4269    0.0000 C   0  0
    5.0000  -12.4269    0.0000 F   0  0
    5.7127  -13.6647    0.0000 F   0  0
    5.5001  -12.0435    0.0000 F   0  0
    9.2802   -5.0000    0.0000 F   0  0
    7.8507   -5.0000    0.0000 F   0  0
    9.3636   -5.6252    0.0000 F   0  0
    9.2886  -12.4144    0.0000 C   0  0
   10.7181  -12.4061    0.0000 C   0  0
    9.9929  -11.1724    0.0000 C   0  0
   10.7098  -11.5767    0.0000 C   0  0
  2  5  1  0
  3  7  1  0
  4  8  1  0
  5 18  2  0
  6  1  1  0
  7 21  1  0
  8 11  1  0
  9  4  1  0
 10 13  1  0
 11 12  1  0
 12  3  1  0
 13  3  1  0
 14  4  1  0
 15 30  1  0
 16 23  2  0
 17  6  1  0
 18 22  1  0
 19  6  2  0
 20 19  1  0
 21 17  2  0
 22  9  2  0
 23  9  1  0
 24  2  1  0
 25  2  1  0
 26  2  1  0
 27  1  1  0
 28  1  1  0
 29  1  1  0
 30 14  2  0
 31 33  1  0
 32 14  1  0
 33 32  2  0
 20  7  2  0
 10  8  1  0
 16  5  1  0
 31 15  2  0
M  END
> <COMPOUND_ID>
DNDI1602412

$$$$

  SciTegic03121405392D

 33 36  0  0  0  0            999 V2000
    8.5660   -6.6417    0.0000 C   0  0
    7.8557   -6.2387    0.0000 O   0  0
    8.5684   -7.4639    0.0000 N   0  0
    9.2834   -6.2320    0.0000 C   0  0
    7.8589   -7.8814    0.0000 C   0  0
    9.2883   -7.8809    0.0000 C   0  0
    9.2891   -8.7014    0.0000 C   0  0
    7.8591   -8.7075    0.0000 C   0  0
    8.5733   -9.1127    0.0000 C   0  0
    7.8630  -10.3533    0.0000 C   0  0
    8.5784   -9.9367    0.0000 N   0  0
    7.1476   -9.9413    0.0000 C   0  0
    7.8630  -11.1818    0.0000 C   0  0
    6.4323  -10.3533    0.0000 C   0  0
    9.2937  -10.3442    0.0000 C   0  0
   10.0091  -11.5803    0.0000 N   0  0
    6.4323  -11.1818    0.0000 C   0  0
    7.1476  -11.5984    0.0000 C   0  0
    5.7169  -11.5984    0.0000 C   0  0
    9.2937  -11.1728    0.0000 C   0  0
   10.0000   -9.9277    0.0000 C   0  0
   10.7290  -11.1637    0.0000 C   0  0
   10.7199  -10.3352    0.0000 C   0  0
    5.0000  -11.1853    0.0000 F   0  0
    5.7157  -12.4224    0.0000 F   0  0
    5.5041  -10.8001    0.0000 F   0  0
    9.9876   -6.6523    0.0000 C   0  0
   10.7045   -6.2434    0.0000 C   0  0
   10.7109   -5.4219    0.0000 C   0  0
    9.9939   -5.0067    0.0000 C   0  0
    9.2847   -5.4137    0.0000 C   0  0
    8.5682   -5.0000    0.0000 F   0  0
    9.9852   -7.4763    0.0000 F   0  0
 10 11  1  0
 12 10  2  0
 13 10  1  0
 14 12  1  0
 15 11  1  0
 16 20  1  0
 17 14  2  0
 18 13  2  0
 19 17  1  0
 20 15  2  0
 21 15  1  0
 22 23  1  0
 23 21  2  0
 18 17  1  0
 22 16  2  0
  5  3  1  0
 19 24  1  0
  6  3  1  0
 19 25  1  0
  7  6  1  0
 19 26  1  0
 11  9  1  0
  8  5  1  0
  4 27  2  0
  9  8  1  0
 27 28  1  0
  7  9  1  0
 28 29  2  0
 29 30  1  0
  2  1  2  0
 30 31  2  0
 31  4  1  0
  3  1  1  0
 31 32  1  0
  4  1  1  0
 27 33  1  0
M  END
> <COMPOUND_ID>
DNDI1602514

$$$$

  SciTegic03121405392D

 30 33  0  0  0  0            999 V2000
    5.7126  -12.4263    0.0000 C   0  0
    8.5673   -8.2964    0.0000 N   0  0
    8.5715  -10.7676    0.0000 N   0  0
    6.4294  -12.0137    0.0000 C   0  0
    8.5673   -7.4712    0.0000 C   0  0
    8.5673   -9.9425    0.0000 C   0  0
    7.8588  -11.1844    0.0000 C   0  0
    9.2799   -9.5299    0.0000 C   0  0
    7.8505   -9.5383    0.0000 C   0  0
    7.8505   -8.7089    0.0000 C   0  0
    9.2799   -8.7089    0.0000 C   0  0
    9.2882  -11.1760    0.0000 C   0  0
   10.0009  -12.4096    0.0000 N   0  0
    6.4294  -11.1885    0.0000 C   0  0
    7.1420  -12.4263    0.0000 C   0  0
    7.1420  -10.7718    0.0000 C   0  0
    7.8588  -12.0137    0.0000 C   0  0
    5.0000  -12.0137    0.0000 F   0  0
    5.7126  -13.2514    0.0000 F   0  0
    5.5001  -11.6303    0.0000 F   0  0
    9.2841   -7.0628    0.0000 C   0  0
    7.8547   -7.0628    0.0000 C   0  0
    8.5673   -5.8251    0.0000 C   0  0
    7.8505   -6.2418    0.0000 C   0  0
    9.2841   -6.2377    0.0000 C   0  0
    8.5673   -5.0000    0.0000 Cl  0  0
    9.2882  -12.0012    0.0000 C   0  0
   10.7177  -11.9928    0.0000 C   0  0
    9.9925  -10.7593    0.0000 C   0  0
   10.7093  -11.1635    0.0000 C   0  0
  2 10  1  0
  3  7  1  0
  4  1  1  0
  5  2  1  0
  6  3  1  0
  7 16  2  0
  8  6  1  0
  9  6  1  0
 10  9  1  0
 11  8  1  0
 12  3  1  0
 13 27  1  0
 14  4  2  0
 15  4  1  0
 16 14  1  0
 17 15  2  0
 18  1  1  0
 19  1  1  0
 20  1  1  0
 21  5  2  0
 22  5  1  0
 23 24  1  0
 24 22  2  0
 25 21  1  0
 26 23  1  0
 27 12  2  0
 28 30  1  0
 29 12  1  0
 30 29  2  0
  7 17  1  0
  2 11  1  0
 28 13  2  0
 23 25  2  0
M  END
> <COMPOUND_ID>
DNDI1639400

$$$$

  SciTegic03121405392D

 31 34  0  0  0  0            999 V2000
    5.7125  -11.6042    0.0000 C   0  0
    8.5709   -9.9458    0.0000 N   0  0
    8.5667   -7.4750    0.0000 N   0  0
    9.2792   -6.2375    0.0000 C   0  0
    6.4292  -11.1917    0.0000 C   0  0
    8.5667   -6.6500    0.0000 C   0  0
    8.5667   -9.1208    0.0000 C   0  0
    7.8584  -10.3625    0.0000 C   0  0
    7.8500   -8.7167    0.0000 C   0  0
    9.2792   -8.7083    0.0000 C   0  0
    9.9917   -6.6500    0.0000 C   0  0
    9.2875  -10.3542    0.0000 C   0  0
   10.0000  -11.5875    0.0000 N   0  0
    6.4292  -10.3625    0.0000 C   0  0
    7.1417  -11.6042    0.0000 C   0  0
    7.1417   -9.9500    0.0000 C   0  0
    7.8584  -11.1917    0.0000 C   0  0
    5.0000  -11.1917    0.0000 F   0  0
    5.7125  -12.4292    0.0000 F   0  0
    5.5000  -10.8084    0.0000 F   0  0
    7.8500   -7.8875    0.0000 C   0  0
    9.2792   -7.8875    0.0000 C   0  0
    9.9917   -7.4750    0.0000 F   0  0
    9.2875  -11.1792    0.0000 C   0  0
    9.2750   -5.4166    0.0000 C   0  0
   10.7167  -11.1709    0.0000 C   0  0
   10.7084   -6.2375    0.0000 C   0  0
    9.9917   -9.9375    0.0000 C   0  0
   10.7084  -10.3417    0.0000 C   0  0
    9.9875   -5.0000    0.0000 C   0  0
   10.7084   -5.4125    0.0000 C   0  0
  2  8  1  0
  3 21  1  0
  4  6  1  0
  5  1  1  0
  6  3  1  0
  7  2  1  0
  8 16  2  0
  9  7  1  0
 10  7  1  0
 11  4  2  0
 12  2  1  0
 13 24  1  0
 14  5  2  0
 15  5  1  0
 16 14  1  0
 17 15  2  0
 18  1  1  0
 19  1  1  0
 20  1  1  0
 21  9  1  0
 22 10  1  0
 23 11  1  0
 24 12  2  0
 25  4  1  0
 26 29  1  0
 27 11  1  0
 28 12  1  0
 29 28  2  0
 30 25  2  0
 31 30  1  0
  8 17  1  0
  3 22  1  0
 26 13  2  0
 31 27  2  0
M  END
> <COMPOUND_ID>
DNDI1639401

$$$$

  SciTegic03121405392D

 29 32  0  0  0  0            999 V2000
    5.7127  -11.6016    0.0000 C   0  0
    8.5675   -7.4715    0.0000 N   0  0
    8.5717   -9.9429    0.0000 N   0  0
    6.4295  -11.1890    0.0000 C   0  0
    8.5675   -9.1177    0.0000 C   0  0
    7.8590  -10.3596    0.0000 C   0  0
    7.8507   -8.7134    0.0000 C   0  0
    9.2802   -8.7051    0.0000 C   0  0
    9.2802   -7.8840    0.0000 C   0  0
    7.8507   -7.8840    0.0000 C   0  0
    8.5675   -6.6463    0.0000 C   0  0
    9.2885  -10.3513    0.0000 C   0  0
   10.0012  -11.5849    0.0000 N   0  0
    6.4295  -10.3596    0.0000 C   0  0
    7.1422  -11.6016    0.0000 C   0  0
    7.1422   -9.9470    0.0000 C   0  0
    7.8590  -11.1890    0.0000 C   0  0
    5.0000  -11.1890    0.0000 F   0  0
    5.7127  -12.4268    0.0000 F   0  0
    5.5001  -10.8056    0.0000 F   0  0
    9.2885  -11.1765    0.0000 C   0  0
   10.7180  -11.1682    0.0000 C   0  0
    9.2802   -6.2378    0.0000 C   0  0
    7.8548   -6.2378    0.0000 C   0  0
    9.9929   -9.9345    0.0000 C   0  0
   10.7097  -10.3388    0.0000 C   0  0
    7.8507   -5.4168    0.0000 C   0  0
    9.2844   -5.4126    0.0000 C   0  0
    8.5675   -5.0000    0.0000 C   0  0
  2 10  1  0
  3  6  1  0
  4  1  1  0
  5  3  1  0
  6 16  2  0
  7  5  1  0
  8  5  1  0
  9  8  1  0
 10  7  1  0
 11  2  1  0
 12  3  1  0
 13 21  1  0
 14  4  2  0
 15  4  1  0
 16 14  1  0
 17 15  2  0
 18  1  1  0
 19  1  1  0
 20  1  1  0
 21 12  2  0
 22 26  1  0
 23 11  2  0
 24 11  1  0
 25 12  1  0
 26 25  2  0
 27 24  2  0
 28 23  1  0
 29 27  1  0
  6 17  1  0
  2  9  1  0
 22 13  2  0
 29 28  2  0
M  END
> <COMPOUND_ID>
DNDI1639402

$$$$

  SciTegic03121405392D

 34 37  0  0  0  0            999 V2000
   11.4253   -6.6376    0.0000 C   0  0
    5.7125  -11.6128    0.0000 C   0  0
    8.5710   -9.9544    0.0000 N   0  0
    8.5668   -7.4834    0.0000 N   0  0
   10.7044   -6.2334    0.0000 C   0  0
    6.4292  -11.2003    0.0000 C   0  0
    8.5668   -9.1293    0.0000 C   0  0
    7.8584  -10.3711    0.0000 C   0  0
    7.8501   -8.7252    0.0000 C   0  0
    9.2793   -8.7168    0.0000 C   0  0
    9.9960   -6.6501    0.0000 C   0  0
    9.2877  -10.3627    0.0000 C   0  0
   10.0002  -11.5961    0.0000 N   0  0
    9.2793   -6.2417    0.0000 C   0  0
    8.5668   -6.6584    0.0000 C   0  0
    6.4292  -10.3752    0.0000 C   0  0
    7.1418  -11.6128    0.0000 C   0  0
    7.1418   -9.9585    0.0000 C   0  0
    7.8584  -11.2003    0.0000 C   0  0
   11.4294   -7.4626    0.0000 F   0  0
   12.1336   -6.2209    0.0000 F   0  0
   10.8461   -7.2251    0.0000 F   0  0
    5.7125  -12.4378    0.0000 F   0  0
    5.5000  -10.8169    0.0000 F   0  0
    5.0000  -11.2003    0.0000 F   0  0
    9.2793   -7.8960    0.0000 C   0  0
    7.8501   -7.8960    0.0000 C   0  0
    9.2877  -11.1877    0.0000 C   0  0
   10.7002   -5.4042    0.0000 C   0  0
    9.9752   -5.0000    0.0000 C   0  0
   10.7169  -11.1794    0.0000 C   0  0
    9.2668   -5.4167    0.0000 C   0  0
    9.9919   -9.9460    0.0000 C   0  0
   10.7086  -10.3502    0.0000 C   0  0
  2  6  1  0
  3  7  1  0
  4 15  1  0
  5  1  1  0
  6 16  2  0
  7  9  1  0
  8  3  1  0
  9 27  1  0
 10 26  1  0
 11  5  1  0
 12  3  1  0
 13 28  1  0
 14 11  2  0
 15 14  1  0
 16 18  1  0
 17 19  2  0
 18  8  2  0
 19  8  1  0
 20  1  1  0
 21  1  1  0
 22  1  1  0
 23  2  1  0
 24  2  1  0
 25  2  1  0
 26  4  1  0
 27  4  1  0
 28 12  2  0
 29  5  2  0
 30 29  1  0
 31 13  2  0
 32 30  2  0
 33 12  1  0
 34 33  2  0
 14 32  1  0
 10  7  1  0
 17  6  1  0
 34 31  1  0
M  END
> <COMPOUND_ID>
DNDI1639403

$$$$

  SciTegic03121405392D

 31 34  0  0  0  0            999 V2000
    5.7126  -11.6256    0.0000 C   0  0
    8.5712   -9.9671    0.0000 N   0  0
    8.5670   -7.4961    0.0000 N   0  0
    6.4293  -11.2131    0.0000 C   0  0
    8.5670   -9.1421    0.0000 C   0  0
    7.8586  -10.3838    0.0000 C   0  0
    7.8503   -8.7379    0.0000 C   0  0
    9.2796   -8.7295    0.0000 C   0  0
    9.2879  -10.3755    0.0000 C   0  0
   10.0005  -11.6090    0.0000 N   0  0
    7.1419  -11.6256    0.0000 C   0  0
    6.4293  -10.3838    0.0000 C   0  0
    7.8586  -11.2131    0.0000 C   0  0
    7.1419   -9.9713    0.0000 C   0  0
    5.0000  -11.2131    0.0000 F   0  0
    5.7126  -12.4507    0.0000 F   0  0
    5.5000  -10.8297    0.0000 F   0  0
    9.2796   -7.9086    0.0000 C   0  0
    7.8503   -7.9086    0.0000 C   0  0
    8.5670   -6.6710    0.0000 C   0  0
    9.2754   -6.2543    0.0000 C   0  0
   10.7005   -5.4167    0.0000 C   0  0
    9.9963   -6.6627    0.0000 C   0  0
    9.2671   -5.4334    0.0000 C   0  0
    9.9755   -5.0125    0.0000 C   0  0
   10.7047   -6.2460    0.0000 C   0  0
    9.2879  -11.2006    0.0000 C   0  0
   10.7172  -11.1922    0.0000 C   0  0
    9.9921   -9.9588    0.0000 C   0  0
   11.4089   -5.0000    0.0000 C   0  0
   10.7089  -10.3630    0.0000 C   0  0
  2  6  1  0
  3 19  1  0
  4  1  1  0
  5  2  1  0
  6 14  2  0
  7  5  1  0
  8  5  1  0
  9  2  1  0
 10 27  1  0
 11  4  1  0
 12  4  2  0
 13 11  2  0
 14 12  1  0
 15  1  1  0
 16  1  1  0
 17  1  1  0
 18  8  1  0
 19  7  1  0
 20  3  1  0
 21 20  1  0
 22 25  1  0
 23 21  2  0
 24 21  1  0
 25 24  2  0
 26 23  1  0
 27  9  2  0
 28 31  1  0
 29  9  1  0
 30 22  1  0
 31 29  2  0
  6 13  1  0
  3 18  1  0
 28 10  2  0
 22 26  2  0
M  END
> <COMPOUND_ID>
DNDI1639404

$$$$

  SciTegic03121405392D

 34 37  0  0  0  0            999 V2000
    5.7125  -12.4292    0.0000 C   0  0
   11.4209   -5.8250    0.0000 C   0  0
    8.5709  -10.7708    0.0000 N   0  0
    8.5667   -8.3000    0.0000 N   0  0
    6.4292  -12.0167    0.0000 C   0  0
   10.7084   -6.2375    0.0000 C   0  0
    8.5667   -9.9458    0.0000 C   0  0
    7.8584  -11.1875    0.0000 C   0  0
    7.8500   -9.5417    0.0000 C   0  0
    9.2792   -9.5333    0.0000 C   0  0
    9.2875  -11.1792    0.0000 C   0  0
   10.0000  -12.4125    0.0000 N   0  0
    7.1417  -12.4292    0.0000 C   0  0
    6.4292  -11.1875    0.0000 C   0  0
    7.8584  -12.0167    0.0000 C   0  0
    7.1417  -10.7750    0.0000 C   0  0
    5.5000  -11.6334    0.0000 F   0  0
    5.0000  -12.0167    0.0000 F   0  0
    5.7125  -13.2542    0.0000 F   0  0
   12.1376   -6.2375    0.0000 F   0  0
   11.4209   -5.0000    0.0000 F   0  0
   11.6376   -6.6208    0.0000 F   0  0
    7.8500   -8.7125    0.0000 C   0  0
    9.2792   -8.7125    0.0000 C   0  0
    8.5667   -7.4750    0.0000 C   0  0
   10.7084   -7.0625    0.0000 C   0  0
    9.9875   -5.8250    0.0000 C   0  0
    9.2792   -7.0625    0.0000 C   0  0
    9.9917   -7.4750    0.0000 C   0  0
    9.2750   -6.2416    0.0000 C   0  0
    9.2875  -12.0042    0.0000 C   0  0
   10.7167  -11.9959    0.0000 C   0  0
    9.9917  -10.7625    0.0000 C   0  0
   10.7084  -11.1667    0.0000 C   0  0
  2  6  1  0
  3  8  1  0
  4 23  1  0
  5  1  1  0
  6 27  1  0
  7  3  1  0
  8 16  2  0
  9  7  1  0
 10  7  1  0
 11  3  1  0
 12 31  1  0
 13  5  1  0
 14  5  2  0
 15 13  2  0
 16 14  1  0
 17  1  1  0
 18  1  1  0
 19  1  1  0
 20  2  1  0
 21  2  1  0
 22  2  1  0
 23  9  1  0
 24 10  1  0
 25  4  1  0
 26 29  1  0
 27 30  2  0
 28 25  1  0
 29 28  2  0
 30 28  1  0
 31 11  2  0
 32 12  2  0
 33 11  1  0
 34 33  2  0
  8 15  1  0
  4 24  1  0
 34 32  1  0
  6 26  2  0
M  END
> <COMPOUND_ID>
DNDI1639405

$$$$

  SciTegic03121405392D

 32 35  0  0  0  0            999 V2000
    5.7124  -11.6120    0.0000 C   0  0
    8.5705   -9.9538    0.0000 N   0  0
    8.5664   -7.4831    0.0000 N   0  0
    6.4290  -11.1995    0.0000 C   0  0
    8.5664   -9.1288    0.0000 C   0  0
    7.8581  -10.3704    0.0000 C   0  0
    7.8498   -8.7247    0.0000 C   0  0
    9.2788   -8.7164    0.0000 C   0  0
    9.2871  -10.3621    0.0000 C   0  0
    9.9996  -11.5953    0.0000 N   0  0
    8.5664   -6.6582    0.0000 C   0  0
    6.4290  -10.3704    0.0000 C   0  0
    7.1415  -11.6120    0.0000 C   0  0
    7.1415   -9.9579    0.0000 C   0  0
    7.8581  -11.1995    0.0000 C   0  0
    5.0000  -11.1995    0.0000 F   0  0
    5.7124  -12.4369    0.0000 F   0  0
    5.5000  -10.8162    0.0000 F   0  0
    7.8498   -7.8956    0.0000 C   0  0
    9.2788   -7.8956    0.0000 C   0  0
    9.2746   -6.2416    0.0000 C   0  0
    9.9954   -6.6499    0.0000 C   0  0
   10.7037   -6.2332    0.0000 C   0  0
    9.2871  -11.1870    0.0000 C   0  0
   11.4245   -6.6374    0.0000 O   0  0
    9.9746   -5.0000    0.0000 C   0  0
   10.7162  -11.1787    0.0000 C   0  0
    9.2663   -5.4208    0.0000 C   0  0
    9.9913   -9.9454    0.0000 C   0  0
   10.6995   -5.4041    0.0000 C   0  0
   12.1369   -6.2207    0.0000 C   0  0
   10.7079  -10.3496    0.0000 C   0  0
  2  6  1  0
  3 19  1  0
  4  1  1  0
  5  2  1  0
  6 14  2  0
  7  5  1  0
  8  5  1  0
  9  2  1  0
 10 24  1  0
 11  3  1  0
 12  4  2  0
 13  4  1  0
 14 12  1  0
 15 13  2  0
 16  1  1  0
 17  1  1  0
 18  1  1  0
 19  7  1  0
 20  8  1  0
 21 11  1  0
 22 21  2  0
 23 22  1  0
 24  9  2  0
 25 23  1  0
 26 28  2  0
 27 10  2  0
 28 21  1  0
 29  9  1  0
 30 26  1  0
 31 25  1  0
 32 29  2  0
  6 15  1  0
  3 20  1  0
 32 27  1  0
 30 23  2  0
M  END
> <COMPOUND_ID>
DNDI1639406

$$$$

  SciTegic03121405392D

 32 35  0  0  0  0            999 V2000
    5.7125  -11.6042    0.0000 C   0  0
    8.5708   -9.9459    0.0000 N   0  0
    8.5667   -7.4750    0.0000 N   0  0
    6.4292  -11.1917    0.0000 C   0  0
    8.5667   -9.1209    0.0000 C   0  0
    7.8583  -10.3625    0.0000 C   0  0
    7.8500   -8.7167    0.0000 C   0  0
    9.2792   -8.7084    0.0000 C   0  0
    9.2875  -10.3542    0.0000 C   0  0
   10.0000  -11.5875    0.0000 N   0  0
    7.1417  -11.6042    0.0000 C   0  0
    6.4292  -10.3625    0.0000 C   0  0
    7.8583  -11.1917    0.0000 C   0  0
    7.1417   -9.9500    0.0000 C   0  0
    5.0000  -11.1917    0.0000 F   0  0
    5.7125  -12.4292    0.0000 F   0  0
    5.5000  -10.8084    0.0000 F   0  0
    9.2792   -7.8875    0.0000 C   0  0
    7.8500   -7.8875    0.0000 C   0  0
    8.5667   -6.6500    0.0000 C   0  0
    9.2792   -6.2375    0.0000 C   0  0
   10.7083   -5.4125    0.0000 C   0  0
    9.9917   -6.6500    0.0000 C   0  0
    9.2750   -5.4167    0.0000 C   0  0
    9.9875   -5.0000    0.0000 C   0  0
   10.7083   -6.2375    0.0000 C   0  0
    9.2875  -11.1792    0.0000 C   0  0
   11.4208   -5.0000    0.0000 O   0  0
   10.7167  -11.1709    0.0000 C   0  0
    9.9917   -9.9375    0.0000 C   0  0
   12.1375   -5.4125    0.0000 C   0  0
   10.7083  -10.3417    0.0000 C   0  0
  2  6  1  0
  3 19  1  0
  4  1  1  0
  5  2  1  0
  6 14  2  0
  7  5  1  0
  8  5  1  0
  9  2  1  0
 10 27  1  0
 11  4  1  0
 12  4  2  0
 13 11  2  0
 14 12  1  0
 15  1  1  0
 16  1  1  0
 17  1  1  0
 18  8  1  0
 19  7  1  0
 20  3  1  0
 21 20  1  0
 22 25  1  0
 23 21  2  0
 24 21  1  0
 25 24  2  0
 26 23  1  0
 27  9  2  0
 28 22  1  0
 29 10  2  0
 30  9  1  0
 31 28  1  0
 32 30  2  0
  6 13  1  0
  3 18  1  0
 32 29  1  0
 22 26  2  0
M  END
> <COMPOUND_ID>
DNDI1639407

$$$$

  SciTegic03121405392D

 34 37  0  0  0  0            999 V2000
    8.5505   -5.8209    0.0000 C   0  0
    5.7126  -12.4218    0.0000 C   0  0
    9.2672   -6.2293    0.0000 C   0  0
    8.5713  -10.7632    0.0000 N   0  0
    8.5671   -8.2921    0.0000 N   0  0
    9.2797   -7.0502    0.0000 C   0  0
    6.4294  -12.0092    0.0000 C   0  0
    8.5671   -7.4670    0.0000 C   0  0
    8.5671   -9.9381    0.0000 C   0  0
    7.8587  -11.1800    0.0000 C   0  0
    7.8504   -9.5339    0.0000 C   0  0
    9.2797   -9.5256    0.0000 C   0  0
    9.2881  -11.1716    0.0000 C   0  0
   10.0007  -12.4051    0.0000 N   0  0
    7.1420  -12.4218    0.0000 C   0  0
    6.4294  -11.1800    0.0000 C   0  0
    8.5380   -5.0000    0.0000 F   0  0
    7.8379   -6.2418    0.0000 F   0  0
    9.1256   -5.2333    0.0000 F   0  0
    7.1420  -10.7674    0.0000 C   0  0
    7.8587  -12.0092    0.0000 C   0  0
    5.0000  -12.0092    0.0000 F   0  0
    5.7126  -13.2469    0.0000 F   0  0
    5.5001  -11.6259    0.0000 F   0  0
    7.8504   -8.7046    0.0000 C   0  0
    9.2797   -8.7046    0.0000 C   0  0
    9.2881  -11.9967    0.0000 C   0  0
    9.9965   -7.4586    0.0000 C   0  0
    9.9757   -5.8084    0.0000 C   0  0
   10.7174  -11.9884    0.0000 C   0  0
    9.9923  -10.7549    0.0000 C   0  0
   10.7091  -11.1591    0.0000 C   0  0
   10.7049   -7.0419    0.0000 C   0  0
   10.7008   -6.2126    0.0000 C   0  0
  2  7  1  0
  3  1  1  0
  4  9  1  0
  5  8  1  0
  6  3  1  0
  7 16  2  0
  8  6  1  0
  9 11  1  0
 10  4  1  0
 11 25  1  0
 12 26  1  0
 13  4  1  0
 14 27  1  0
 15 21  2  0
 16 20  1  0
 17  1  1  0
 18  1  1  0
 19  1  1  0
 20 10  2  0
 21 10  1  0
 22  2  1  0
 23  2  1  0
 24  2  1  0
 25  5  1  0
 26  5  1  0
 27 13  2  0
 28  6  2  0
 29  3  2  0
 30 14  2  0
 31 13  1  0
 32 31  2  0
 33 28  1  0
 34 29  1  0
 34 33  2  0
 12  9  1  0
 15  7  1  0
 32 30  1  0
M  END
> <COMPOUND_ID>
DNDI1639408

$$$$

  SciTegic03121405392D

 31 34  0  0  0  0            999 V2000
    5.7124  -11.6121    0.0000 C   0  0
    8.5706   -9.9538    0.0000 N   0  0
    8.5664   -7.4832    0.0000 N   0  0
    6.4291  -11.1996    0.0000 C   0  0
    8.5664   -9.1289    0.0000 C   0  0
    7.8581  -10.3705    0.0000 C   0  0
    7.8498   -8.7248    0.0000 C   0  0
    9.2789   -8.7164    0.0000 C   0  0
    9.2872  -10.3622    0.0000 C   0  0
    9.9996  -11.5954    0.0000 N   0  0
    8.5664   -6.6583    0.0000 C   0  0
    6.4291  -10.3705    0.0000 C   0  0
    7.1415  -11.6121    0.0000 C   0  0
    7.1415   -9.9580    0.0000 C   0  0
    7.8581  -11.1996    0.0000 C   0  0
    5.0000  -11.1996    0.0000 F   0  0
    5.7124  -12.4370    0.0000 F   0  0
    5.5000  -10.8163    0.0000 F   0  0
    7.8498   -7.8957    0.0000 C   0  0
    9.2789   -7.8957    0.0000 C   0  0
    9.2789   -6.2374    0.0000 C   0  0
    9.9955   -6.6499    0.0000 C   0  0
   10.7038   -6.2333    0.0000 C   0  0
    9.2872  -11.1871    0.0000 C   0  0
    9.9746   -5.0000    0.0000 C   0  0
   10.7163  -11.1788    0.0000 C   0  0
    9.2664   -5.4208    0.0000 C   0  0
    9.9913   -9.9455    0.0000 C   0  0
   10.6996   -5.4042    0.0000 C   0  0
   11.4245   -6.6374    0.0000 C   0  0
   10.7079  -10.3497    0.0000 C   0  0
  2  6  1  0
  3 19  1  0
  4  1  1  0
  5  2  1  0
  6 14  2  0
  7  5  1  0
  8  5  1  0
  9  2  1  0
 10 24  1  0
 11  3  1  0
 12  4  2  0
 13  4  1  0
 14 12  1  0
 15 13  2  0
 16  1  1  0
 17  1  1  0
 18  1  1  0
 19  7  1  0
 20  8  1  0
 21 11  1  0
 22 21  2  0
 23 22  1  0
 24  9  2  0
 25 27  2  0
 26 31  1  0
 27 21  1  0
 28  9  1  0
 29 25  1  0
 30 23  1  0
 31 28  2  0
  6 15  1  0
  3 20  1  0
 26 10  2  0
 29 23  2  0
M  END
> <COMPOUND_ID>
DNDI1639410

$$$$

  SciTegic03121405392D

 28 31  0  0  0  0            999 V2000
    8.5676   -6.2670    0.0000 C   0  0
    8.5676   -7.0922    0.0000 N   0  0
    5.7127  -11.2224    0.0000 C   0  0
    7.9007   -5.7835    0.0000 N   0  0
    8.5717   -9.5636    0.0000 N   0  0
    9.2344   -5.7835    0.0000 S   0  0
    6.4295  -10.8098    0.0000 C   0  0
    8.5676   -8.7384    0.0000 C   0  0
    7.8591   -9.9804    0.0000 C   0  0
    9.2803   -7.5048    0.0000 C   0  0
    9.2803   -8.3258    0.0000 C   0  0
    7.8507   -7.5048    0.0000 C   0  0
    7.8507   -8.3342    0.0000 C   0  0
    8.1550   -5.0000    0.0000 C   0  0
    8.9802   -5.0000    0.0000 C   0  0
    9.2886   -9.9721    0.0000 C   0  0
   10.0013  -11.2057    0.0000 N   0  0
    6.4295   -9.9804    0.0000 C   0  0
    7.1422  -11.2224    0.0000 C   0  0
    7.1422   -9.5678    0.0000 C   0  0
    7.8591  -10.8098    0.0000 C   0  0
    5.0000  -10.8098    0.0000 F   0  0
    5.7127  -12.0476    0.0000 F   0  0
    5.5001  -10.4264    0.0000 F   0  0
    9.2886  -10.7973    0.0000 C   0  0
   10.7181  -10.7889    0.0000 C   0  0
    9.9929   -9.5553    0.0000 C   0  0
   10.7098   -9.9596    0.0000 C   0  0
  2  1  1  0
  3  7  1  0
  4  1  2  0
  5  8  1  0
  6  1  1  0
  7 18  2  0
  8 11  1  0
  9  5  1  0
 10  2  1  0
 11 10  1  0
 12  2  1  0
 13 12  1  0
 14  4  1  0
 15  6  1  0
 16  5  1  0
 17 25  1  0
 18 20  1  0
 19 21  2  0
 20  9  2  0
 21  9  1  0
 22  3  1  0
 23  3  1  0
 24  3  1  0
 25 16  2  0
 26 28  1  0
 27 16  1  0
 28 27  2  0
 14 15  2  0
 13  8  1  0
 19  7  1  0
 26 17  2  0
M  END
> <COMPOUND_ID>
DNDI1639411

$$$$

  SciTegic03121405392D

 31 34  0  0  0  0            999 V2000
    5.7125  -11.6124    0.0000 C   0  0
    8.5708   -9.9541    0.0000 N   0  0
    8.5666   -7.4833    0.0000 N   0  0
    6.4291  -11.1999    0.0000 C   0  0
    8.5666   -9.1291    0.0000 C   0  0
    9.2791   -6.2417    0.0000 C   0  0
    8.5666   -6.6583    0.0000 C   0  0
    7.8583  -10.3708    0.0000 C   0  0
    7.8500   -8.7250    0.0000 C   0  0
    9.2791   -8.7166    0.0000 C   0  0
    9.2874  -10.3624    0.0000 C   0  0
    9.9999  -11.5957    0.0000 N   0  0
    7.1416  -11.6124    0.0000 C   0  0
    6.4291  -10.3708    0.0000 C   0  0
    9.2666   -5.4208    0.0000 C   0  0
    7.1416   -9.9583    0.0000 C   0  0
    7.8583  -11.1999    0.0000 C   0  0
    5.5000  -10.8166    0.0000 F   0  0
    5.0000  -11.1999    0.0000 F   0  0
    5.7125  -12.4374    0.0000 F   0  0
    7.8500   -7.8958    0.0000 C   0  0
    9.2791   -7.8958    0.0000 C   0  0
    9.2874  -11.1874    0.0000 C   0  0
    9.9958   -6.6500    0.0000 C   0  0
   10.7166  -11.1791    0.0000 C   0  0
    8.5499   -5.0125    0.0000 C   0  0
    9.9916   -9.9458    0.0000 C   0  0
    9.9749   -5.0000    0.0000 C   0  0
   10.7082  -10.3499    0.0000 C   0  0
   10.7041   -6.2333    0.0000 C   0  0
   10.6999   -5.4042    0.0000 C   0  0
  2  8  1  0
  3 21  1  0
  4  1  1  0
  5  2  1  0
  6  7  1  0
  7  3  1  0
  8 16  2  0
  9  5  1  0
 10  5  1  0
 11  2  1  0
 12 23  1  0
 13  4  1  0
 14  4  2  0
 15  6  1  0
 16 14  1  0
 17 13  2  0
 18  1  1  0
 19  1  1  0
 20  1  1  0
 21  9  1  0
 22 10  1  0
 23 11  2  0
 24  6  2  0
 25 29  1  0
 26 15  1  0
 27 11  1  0
 28 15  2  0
 29 27  2  0
 30 24  1  0
 31 28  1  0
  8 17  1  0
  3 22  1  0
 25 12  2  0
 31 30  2  0
M  END
> <COMPOUND_ID>
DNDI1639412

$$$$

  SciTegic03121405392D

 30 33  0  0  0  0            999 V2000
    5.7127  -12.4272    0.0000 C   0  0
    8.5678   -8.2968    0.0000 N   0  0
    8.5678   -7.4716    0.0000 C   0  0
    9.2805   -7.0631    0.0000 N   0  0
    8.5719  -10.7684    0.0000 N   0  0
    6.4296  -12.0146    0.0000 C   0  0
    8.5678   -9.9431    0.0000 C   0  0
    7.8592  -11.1852    0.0000 C   0  0
    7.8509   -9.5389    0.0000 C   0  0
    9.2805   -9.5305    0.0000 C   0  0
    9.2805   -8.7094    0.0000 C   0  0
    7.8509   -8.7094    0.0000 C   0  0
    9.2888  -11.1769    0.0000 C   0  0
   10.0015  -12.4106    0.0000 N   0  0
    7.8550   -7.0631    0.0000 C   0  0
    6.4296  -11.1894    0.0000 C   0  0
    7.1423  -12.4272    0.0000 C   0  0
    7.1423  -10.7726    0.0000 C   0  0
    7.8592  -12.0146    0.0000 C   0  0
    5.5002  -11.6312    0.0000 F   0  0
    5.0000  -12.0146    0.0000 F   0  0
    5.7127  -13.2525    0.0000 F   0  0
    9.2847   -6.2378    0.0000 C   0  0
    8.5678   -5.8252    0.0000 C   0  0
    7.8509   -6.2420    0.0000 C   0  0
    8.5678   -5.0000    0.0000 Cl  0  0
    9.2888  -12.0021    0.0000 C   0  0
   10.7184  -11.9938    0.0000 C   0  0
    9.9932  -10.7601    0.0000 C   0  0
   10.7101  -11.1644    0.0000 C   0  0
  2 12  1  0
  3  2  1  0
  4  3  2  0
  5  8  1  0
  6  1  1  0
  7  5  1  0
  8 18  2  0
  9  7  1  0
 10  7  1  0
 11 10  1  0
 12  9  1  0
 13  5  1  0
 14 27  1  0
 15  3  1  0
 16  6  2  0
 17  6  1  0
 18 16  1  0
 19 17  2  0
 20  1  1  0
 21  1  1  0
 22  1  1  0
 23  4  1  0
 24 25  1  0
 25 15  2  0
 26 24  1  0
 27 13  2  0
 28 30  1  0
 29 13  1  0
 30 29  2  0
  8 19  1  0
  2 11  1  0
 28 14  2  0
 24 23  2  0
M  END
> <COMPOUND_ID>
DNDI1639413

$$$$

  SciTegic03121405392D

 33 36  0  0  0  0            999 V2000
    9.9971   -5.8253    0.0000 C   0  0
    5.7127  -12.4269    0.0000 C   0  0
    8.5676   -8.2967    0.0000 N   0  0
    8.5717  -10.7681    0.0000 N   0  0
    9.2844   -6.2379    0.0000 C   0  0
    8.5676   -7.4715    0.0000 C   0  0
    9.2802   -7.0631    0.0000 C   0  0
    6.4295  -12.0143    0.0000 C   0  0
    8.5676   -9.9429    0.0000 C   0  0
    7.8590  -11.1849    0.0000 C   0  0
    7.8507   -9.5387    0.0000 C   0  0
    9.2802   -9.5303    0.0000 C   0  0
    9.2802   -8.7093    0.0000 C   0  0
    7.8507   -8.7093    0.0000 C   0  0
    9.2886  -11.1766    0.0000 C   0  0
   10.0012  -12.4102    0.0000 N   0  0
    7.1422  -12.4269    0.0000 C   0  0
    6.4295  -11.1849    0.0000 C   0  0
    7.8590  -12.0143    0.0000 C   0  0
    7.1422  -10.7723    0.0000 C   0  0
   10.7139   -6.2379    0.0000 F   0  0
    9.9971   -5.0000    0.0000 F   0  0
   10.2096   -6.6213    0.0000 F   0  0
    5.0000  -12.0143    0.0000 F   0  0
    5.7127  -13.2521    0.0000 F   0  0
    5.5001  -11.6309    0.0000 F   0  0
    9.2886  -12.0018    0.0000 C   0  0
    8.5676   -5.8253    0.0000 C   0  0
    7.8549   -7.0631    0.0000 C   0  0
    7.8507   -6.2420    0.0000 C   0  0
   10.7181  -11.9935    0.0000 C   0  0
    9.9929  -10.7598    0.0000 C   0  0
   10.7098  -11.1641    0.0000 C   0  0
  2  8  1  0
  3  6  1  0
  4  9  1  0
  5  1  1  0
  6  7  2  0
  7  5  1  0
  8 18  2  0
  9 11  1  0
 10  4  1  0
 11 14  1  0
 12 13  1  0
 13  3  1  0
 14  3  1  0
 15  4  1  0
 16 27  1  0
 17 19  2  0
 18 20  1  0
 19 10  1  0
 20 10  2  0
 21  1  1  0
 22  1  1  0
 23  1  1  0
 24  2  1  0
 25  2  1  0
 26  2  1  0
 27 15  2  0
 28  5  2  0
 29 30  2  0
 30 28  1  0
 31 16  2  0
 32 15  1  0
 33 32  2  0
  6 29  1  0
 12  9  1  0
 17  8  1  0
 33 31  1  0
M  END
> <COMPOUND_ID>
DNDI1639414

$$$$

  SciTegic03121405392D

 29 32  0  0  0  0            999 V2000
    5.7127  -11.6016    0.0000 C   0  0
    8.5675   -7.4715    0.0000 N   0  0
    8.5717   -9.9429    0.0000 N   0  0
    8.5675   -6.6463    0.0000 C   0  0
    6.4295  -11.1890    0.0000 C   0  0
    8.5675   -9.1177    0.0000 C   0  0
    7.8590  -10.3596    0.0000 C   0  0
    9.2802   -6.2378    0.0000 N   0  0
    7.8507   -8.7134    0.0000 C   0  0
    9.2802   -8.7051    0.0000 C   0  0
    9.2802   -7.8840    0.0000 C   0  0
    7.8507   -7.8840    0.0000 C   0  0
    9.2885  -10.3513    0.0000 C   0  0
   10.0012  -11.5849    0.0000 N   0  0
    7.1422  -11.6016    0.0000 C   0  0
    6.4295  -10.3596    0.0000 C   0  0
    7.8590  -11.1890    0.0000 C   0  0
    7.1422   -9.9470    0.0000 C   0  0
    5.7127  -12.4268    0.0000 F   0  0
    5.5001  -10.8056    0.0000 F   0  0
    5.0000  -11.1890    0.0000 F   0  0
    9.2885  -11.1765    0.0000 C   0  0
    7.8548   -6.2378    0.0000 C   0  0
    9.2844   -5.4126    0.0000 C   0  0
   10.7180  -11.1682    0.0000 C   0  0
    9.9929   -9.9345    0.0000 C   0  0
   10.7097  -10.3388    0.0000 C   0  0
    7.8507   -5.4168    0.0000 C   0  0
    8.5675   -5.0000    0.0000 C   0  0
  2 12  1  0
  3  7  1  0
  4  2  1  0
  5  1  1  0
  6  3  1  0
  7 18  2  0
  8  4  2  0
  9  6  1  0
 10  6  1  0
 11 10  1  0
 12  9  1  0
 13  3  1  0
 14 22  1  0
 15  5  1  0
 16  5  2  0
 17 15  2  0
 18 16  1  0
 19  1  1  0
 20  1  1  0
 21  1  1  0
 22 13  2  0
 23  4  1  0
 24  8  1  0
 25 27  1  0
 26 13  1  0
 27 26  2  0
 28 23  2  0
 29 28  1  0
  7 17  1  0
  2 11  1  0
 25 14  2  0
 29 24  2  0
M  END
> <COMPOUND_ID>
DNDI1639415

$$$$

  SciTegic03121405392D

 33 36  0  0  0  0            999 V2000
    8.5676   -5.4126    0.0000 C   0  0
    5.7127  -12.8395    0.0000 C   0  0
    8.5676   -8.7093    0.0000 N   0  0
    8.5676   -6.2379    0.0000 C   0  0
    8.5676   -7.8841    0.0000 C   0  0
    7.8549   -7.4757    0.0000 N   0  0
    8.5717  -11.1807    0.0000 N   0  0
    6.4295  -12.4269    0.0000 C   0  0
    8.5676  -10.3555    0.0000 C   0  0
    7.8507   -6.6546    0.0000 C   0  0
    7.8590  -11.5975    0.0000 C   0  0
    9.2802   -9.9429    0.0000 C   0  0
    7.8507   -9.9513    0.0000 C   0  0
    7.8507   -9.1219    0.0000 C   0  0
    9.2802   -9.1219    0.0000 C   0  0
    9.2844   -6.6505    0.0000 C   0  0
    9.2802   -7.4757    0.0000 C   0  0
    9.2886  -11.5892    0.0000 C   0  0
   10.0012  -12.8228    0.0000 N   0  0
    6.4295  -11.5975    0.0000 C   0  0
    7.1422  -12.8395    0.0000 C   0  0
    9.2802   -5.0000    0.0000 F   0  0
    7.8507   -5.0000    0.0000 F   0  0
    9.3636   -5.6252    0.0000 F   0  0
    7.8590  -12.4269    0.0000 C   0  0
    7.1422  -11.1849    0.0000 C   0  0
    5.0000  -12.4269    0.0000 F   0  0
    5.7127  -13.6647    0.0000 F   0  0
    5.5001  -12.0435    0.0000 F   0  0
    9.2886  -12.4144    0.0000 C   0  0
   10.7181  -12.4061    0.0000 C   0  0
    9.9929  -11.1724    0.0000 C   0  0
   10.7098  -11.5767    0.0000 C   0  0
  2  8  1  0
  3  5  1  0
  4  1  1  0
  5  6  1  0
  6 10  2  0
  7  9  1  0
  8 20  2  0
  9 13  1  0
 10  4  1  0
 11  7  1  0
 12 15  1  0
 13 14  1  0
 14  3  1  0
 15  3  1  0
 16  4  2  0
 17 16  1  0
 18  7  1  0
 19 30  1  0
 20 26  1  0
 21 25  2  0
 22  1  1  0
 23  1  1  0
 24  1  1  0
 25 11  1  0
 26 11  2  0
 27  2  1  0
 28  2  1  0
 29  2  1  0
 30 18  2  0
 31 19  2  0
 32 18  1  0
 33 32  2  0
 17  5  2  0
 12  9  1  0
 21  8  1  0
 33 31  1  0
M  END
> <COMPOUND_ID>
DNDI1639416

$$$$

  SciTegic03121405392D

 34 36  0  0  0  0            999 V2000
    6.3990    2.6213    0.0000 Cl  0  0
    2.5988   -1.5004    0.0000 C   0  0
  -11.6937    0.7330    0.0000 C   0  0
   -2.5987    1.5004    0.0000 N   0  0
    1.2990   -0.7500    0.0000 C   0  0
   -1.2990    0.7500    0.0000 C   0  0
    0.0000    1.5000    0.0000 N   0  0
   -6.5012    3.7428    0.0000 N   0  0
  -10.3948    1.4850    0.0000 C   0  0
   -5.1993    2.9963    0.0000 C   0  0
    1.2990    0.7500    0.0000 C   0  0
   -7.7985    2.9882    0.0000 C   0  0
   -5.1969    1.4963    0.0000 C   0  0
   -3.9015    3.7484    0.0000 C   0  0
   -2.6012    3.0004    0.0000 C   0  0
   -3.8967    0.7484    0.0000 C   0  0
    0.0000   -1.5000    0.0000 C   0  0
   -1.2990   -0.7500    0.0000 C   0  0
   -6.5051    5.2437    0.0000 C   0  0
   -5.2166    7.4998    0.0000 N   0  0
  -10.3967    2.9850    0.0000 C   0  0
   -9.0949    0.7366    0.0000 C   0  0
    3.6384   -0.9011    0.0000 F   0  0
    2.5984   -2.7004    0.0000 F   0  0
    3.6377   -2.1009    0.0000 F   0  0
   -7.7967    1.4882    0.0000 C   0  0
   -9.0985    3.7366    0.0000 C   0  0
  -12.7340    1.3310    0.0000 F   0  0
  -11.6918   -0.4670    0.0000 F   0  0
  -12.7319    0.1312    0.0000 F   0  0
   -5.2096    5.9998    0.0000 C   0  0
   -6.5191    8.2437    0.0000 C   0  0
   -7.8077    5.9877    0.0000 C   0  0
   -7.8147    7.4877    0.0000 C   0  0
  3  9  1  0
  4  6  1  0
  5  2  1  0
  6  7  1  0
  7 11  2  0
  8 10  1  0
  9 21  2  0
 10 14  1  0
 11  5  1  0
 12  8  1  0
 13 16  1  0
 14 15  1  0
 15  4  1  0
 16  4  1  0
 17  5  2  0
 18 17  1  0
 19  8  1  0
 20 31  1  0
 21 27  1  0
 22 26  2  0
 23  2  1  0
 24  2  1  0
 25  2  1  0
 26 12  1  0
 27 12  2  0
 28  3  1  0
 29  3  1  0
 30  3  1  0
 31 19  2  0
 32 20  2  0
 33 19  1  0
 34 33  2  0
 18  6  2  0
 13 10  1  0
 22  9  1  0
 34 32  1  0
M  END
> <COMPOUND_ID>
DNDI1639416-24

$$$$

  SciTegic03121405392D

 30 33  0  0  0  0            999 V2000
    8.5675   -7.4714    0.0000 C   0  0
    8.5675   -8.2966    0.0000 N   0  0
    5.7127  -12.4267    0.0000 C   0  0
    9.2802   -7.0630    0.0000 N   0  0
    7.8548   -7.0630    0.0000 N   0  0
    8.5717  -10.7680    0.0000 N   0  0
    6.4295  -12.0141    0.0000 C   0  0
    8.5675   -9.9428    0.0000 C   0  0
    7.8590  -11.1848    0.0000 C   0  0
    9.2802   -9.5302    0.0000 C   0  0
    7.8507   -9.5385    0.0000 C   0  0
    7.8507   -8.7092    0.0000 C   0  0
    9.2802   -8.7092    0.0000 C   0  0
    9.2885  -11.1764    0.0000 C   0  0
   10.0012  -12.4100    0.0000 N   0  0
    8.5675   -5.8252    0.0000 C   0  0
    7.1422  -12.4267    0.0000 C   0  0
    6.4295  -11.1848    0.0000 C   0  0
    7.8590  -12.0141    0.0000 C   0  0
    7.1422  -10.7722    0.0000 C   0  0
    5.0000  -12.0141    0.0000 F   0  0
    5.7127  -13.2519    0.0000 F   0  0
    5.5001  -11.6307    0.0000 F   0  0
    7.8507   -6.2419    0.0000 C   0  0
    9.2843   -6.2378    0.0000 C   0  0
    8.5675   -5.0000    0.0000 F   0  0
    9.2885  -12.0016    0.0000 C   0  0
   10.7180  -11.9933    0.0000 C   0  0
    9.9928  -10.7597    0.0000 C   0  0
   10.7097  -11.1639    0.0000 C   0  0
  2  1  1  0
  3  7  1  0
  4  1  2  0
  5  1  1  0
  6  8  1  0
  7 18  2  0
  8 11  1  0
  9  6  1  0
 10 13  1  0
 11 12  1  0
 12  2  1  0
 13  2  1  0
 14  6  1  0
 15 27  1  0
 16 24  1  0
 17 19  2  0
 18 20  1  0
 19  9  1  0
 20  9  2  0
 21  3  1  0
 22  3  1  0
 23  3  1  0
 24  5  2  0
 25  4  1  0
 26 16  1  0
 27 14  2  0
 28 30  1  0
 29 14  1  0
 30 29  2  0
 16 25  2  0
 10  8  1  0
 17  7  1  0
 28 15  2  0
M  END
> <COMPOUND_ID>
DNDI1639417

$$$$

  SciTegic03121405392D

 29 32  0  0  0  0            999 V2000
    8.5675   -6.6463    0.0000 C   0  0
    5.7127  -11.6016    0.0000 C   0  0
    8.5675   -7.4715    0.0000 N   0  0
    8.5717   -9.9429    0.0000 N   0  0
    6.4295  -11.1890    0.0000 C   0  0
    9.2802   -6.2378    0.0000 N   0  0
    7.8548   -6.2378    0.0000 N   0  0
    8.5675   -9.1177    0.0000 C   0  0
    7.8590  -10.3596    0.0000 C   0  0
    9.2802   -8.7051    0.0000 C   0  0
    7.8507   -8.7134    0.0000 C   0  0
    7.8507   -7.8840    0.0000 C   0  0
    9.2802   -7.8840    0.0000 C   0  0
    9.2885  -10.3513    0.0000 C   0  0
   10.0012  -11.5849    0.0000 N   0  0
    6.4295  -10.3596    0.0000 C   0  0
    7.1422  -11.6016    0.0000 C   0  0
    7.1422   -9.9470    0.0000 C   0  0
    7.8590  -11.1890    0.0000 C   0  0
    5.5001  -10.8056    0.0000 F   0  0
    5.0000  -11.1890    0.0000 F   0  0
    5.7127  -12.4268    0.0000 F   0  0
    9.2885  -11.1765    0.0000 C   0  0
    8.5675   -5.0000    0.0000 C   0  0
    7.8507   -5.4168    0.0000 C   0  0
    9.2844   -5.4126    0.0000 C   0  0
   10.7180  -11.1682    0.0000 C   0  0
    9.9929   -9.9345    0.0000 C   0  0
   10.7097  -10.3388    0.0000 C   0  0
  2  5  1  0
  3  1  1  0
  4  8  1  0
  5 16  2  0
  6  1  2  0
  7  1  1  0
  8 11  1  0
  9  4  1  0
 10 13  1  0
 11 12  1  0
 12  3  1  0
 13  3  1  0
 14  4  1  0
 15 23  1  0
 16 18  1  0
 17 19  2  0
 18  9  2  0
 19  9  1  0
 20  2  1  0
 21  2  1  0
 22  2  1  0
 23 14  2  0
 24 25  1  0
 25  7  2  0
 26  6  1  0
 27 29  1  0
 28 14  1  0
 29 28  2  0
 24 26  2  0
 10  8  1  0
 17  5  1  0
 27 15  2  0
M  END
> <COMPOUND_ID>
DNDI1639418

$$$$

  SciTegic03121405392D

 31 34  0  0  0  0            999 V2000
    5.7126  -13.2554    0.0000 C   0  0
    8.5672   -9.1256    0.0000 N   0  0
    8.5714  -11.5968    0.0000 N   0  0
    8.5630   -5.0000    0.0000 N   0  0
    6.4294  -12.8428    0.0000 C   0  0
    8.5672   -5.8293    0.0000 C   0  0
    8.5672   -8.3005    0.0000 C   0  0
    8.5672  -10.7717    0.0000 C   0  0
    7.8588  -12.0135    0.0000 C   0  0
    9.2798  -10.3591    0.0000 C   0  0
    7.8504  -10.3674    0.0000 C   0  0
    7.8504   -9.5382    0.0000 C   0  0
    9.2798   -9.5382    0.0000 C   0  0
    9.2881  -12.0052    0.0000 C   0  0
   10.0007  -13.2387    0.0000 N   0  0
    6.4294  -12.0177    0.0000 C   0  0
    7.1420  -13.2554    0.0000 C   0  0
    7.1420  -11.6010    0.0000 C   0  0
    7.8588  -12.8428    0.0000 C   0  0
    5.5001  -12.4594    0.0000 F   0  0
    5.0000  -12.8428    0.0000 F   0  0
    5.7126  -14.0805    0.0000 F   0  0
    9.2798   -7.8921    0.0000 C   0  0
    7.8546   -7.8921    0.0000 C   0  0
    8.5672   -6.6544    0.0000 C   0  0
    7.8504   -7.0711    0.0000 C   0  0
    9.2840   -7.0670    0.0000 C   0  0
    9.2881  -12.8303    0.0000 C   0  0
   10.7175  -12.8220    0.0000 C   0  0
    9.9924  -11.5885    0.0000 C   0  0
   10.7092  -11.9927    0.0000 C   0  0
  2 12  1  0
  3  9  1  0
  4  6  3  0
  5  1  1  0
  6 25  1  0
  7  2  1  0
  8  3  1  0
  9 18  2  0
 10  8  1  0
 11  8  1  0
 12 11  1  0
 13 10  1  0
 14  3  1  0
 15 28  1  0
 16  5  2  0
 17  5  1  0
 18 16  1  0
 19 17  2  0
 20  1  1  0
 21  1  1  0
 22  1  1  0
 23  7  2  0
 24  7  1  0
 25 26  1  0
 26 24  2  0
 27 23  1  0
 28 14  2  0
 29 31  1  0
 30 14  1  0
 31 30  2  0
  9 19  1  0
  2 13  1  0
 29 15  2  0
 25 27  2  0
M  END
> <COMPOUND_ID>
DNDI1676777

$$$$

  SciTegic03121405392D

 31 34  0  0  0  0            999 V2000
    5.7127  -11.6020    0.0000 C   0  0
    8.5677   -7.4716    0.0000 N   0  0
    8.5719   -9.9431    0.0000 N   0  0
    8.5677   -6.6463    0.0000 C   0  0
   10.7100   -7.0631    0.0000 N   0  0
    9.9973   -6.6505    0.0000 C   0  0
    9.2846   -6.2379    0.0000 C   0  0
    6.4296  -11.1893    0.0000 C   0  0
    8.5677   -9.1179    0.0000 C   0  0
    7.8592  -10.3599    0.0000 C   0  0
    9.2804   -8.7053    0.0000 C   0  0
    7.8508   -8.7136    0.0000 C   0  0
    7.8508   -7.8842    0.0000 C   0  0
    9.2804   -7.8842    0.0000 C   0  0
    9.2887  -10.3516    0.0000 C   0  0
   10.0015  -11.5853    0.0000 N   0  0
    7.1423  -11.6020    0.0000 C   0  0
    6.4296  -10.3641    0.0000 C   0  0
    7.8592  -11.1893    0.0000 C   0  0
    7.1423   -9.9473    0.0000 C   0  0
    5.7127  -12.4272    0.0000 F   0  0
    5.5001  -10.8059    0.0000 F   0  0
    5.0000  -11.1893    0.0000 F   0  0
    9.2887  -11.1768    0.0000 C   0  0
    7.8550   -6.2379    0.0000 C   0  0
    9.2846   -5.4127    0.0000 C   0  0
   10.7183  -11.1685    0.0000 C   0  0
    9.9931   -9.9348    0.0000 C   0  0
   10.7100  -10.3391    0.0000 C   0  0
    7.8508   -5.4168    0.0000 C   0  0
    8.5677   -5.0000    0.0000 C   0  0
  2 14  1  0
  3 10  1  0
  4  2  1  0
  5  6  3  0
  6  7  1  0
  7  4  2  0
  8  1  1  0
  9  3  1  0
 10 20  2  0
 11  9  1  0
 12  9  1  0
 13 12  1  0
 14 11  1  0
 15  3  1  0
 16 24  1  0
 17  8  1  0
 18  8  2  0
 19 17  2  0
 20 18  1  0
 21  1  1  0
 22  1  1  0
 23  1  1  0
 24 15  2  0
 25  4  1  0
 26  7  1  0
 27 29  1  0
 28 15  1  0
 29 28  2  0
 30 25  2  0
 31 30  1  0
 10 19  1  0
 13  2  1  0
 27 16  2  0
 31 26  2  0
M  END
> <COMPOUND_ID>
DNDI1676780

$$$$

  SciTegic03121405392D

 33 36  0  0  0  0            999 V2000
    8.5678   -5.4127    0.0000 C   0  0
    5.7127  -12.8400    0.0000 C   0  0
    8.5678   -8.7096    0.0000 N   0  0
    7.8509   -6.6547    0.0000 N   0  0
    8.5720  -11.1812    0.0000 N   0  0
    8.5678   -6.2379    0.0000 C   0  0
    6.4296  -12.4274    0.0000 C   0  0
    8.5678   -7.8843    0.0000 C   0  0
    8.5678  -10.3559    0.0000 C   0  0
    7.8592  -11.5980    0.0000 C   0  0
    9.2805   -9.9433    0.0000 C   0  0
    7.8509   -9.9516    0.0000 C   0  0
    7.8509   -9.1222    0.0000 C   0  0
    9.2805   -9.1222    0.0000 C   0  0
    7.8551   -7.4758    0.0000 C   0  0
    9.2889  -11.5896    0.0000 C   0  0
   10.0016  -12.8234    0.0000 N   0  0
    9.2847   -6.6506    0.0000 C   0  0
    7.1423  -12.8400    0.0000 C   0  0
    6.4296  -11.6021    0.0000 C   0  0
    9.2805   -7.4758    0.0000 C   0  0
    7.1423  -11.1853    0.0000 C   0  0
    7.8592  -12.4274    0.0000 C   0  0
    5.7127  -13.6653    0.0000 F   0  0
    5.5002  -12.0440    0.0000 F   0  0
    5.0000  -12.4274    0.0000 F   0  0
    9.2805   -5.0000    0.0000 F   0  0
    7.8509   -5.0000    0.0000 F   0  0
    9.3639   -5.6252    0.0000 F   0  0
    9.2889  -12.4149    0.0000 C   0  0
   10.7185  -12.4066    0.0000 C   0  0
    9.9933  -11.1728    0.0000 C   0  0
   10.7102  -11.5771    0.0000 C   0  0
  2  7  1  0
  3  8  1  0
  4  6  1  0
  5  9  1  0
  6  1  1  0
  7 20  2  0
  8 15  1  0
  9 12  1  0
 10  5  1  0
 11 14  1  0
 12 13  1  0
 13  3  1  0
 14  3  1  0
 15  4  2  0
 16  5  1  0
 17 30  1  0
 18  6  2  0
 19 23  2  0
 20 22  1  0
 21 18  1  0
 22 10  2  0
 23 10  1  0
 24  2  1  0
 25  2  1  0
 26  2  1  0
 27  1  1  0
 28  1  1  0
 29  1  1  0
 30 16  2  0
 31 33  1  0
 32 16  1  0
 33 32  2  0
 21  8  2  0
 11  9  1  0
 19  7  1  0
 31 17  2  0
M  END
> <COMPOUND_ID>
DNDI1676781

$$$$

  SciTegic03121405392D

 30 33  0  0  0  0            999 V2000
    5.7126  -12.4257    0.0000 C   0  0
    8.5670   -8.2961    0.0000 N   0  0
    8.5712  -10.7672    0.0000 N   0  0
    7.8503   -6.2418    0.0000 N   0  0
    6.4293  -12.0132    0.0000 C   0  0
    8.5670   -7.4711    0.0000 C   0  0
    8.5670   -9.9421    0.0000 C   0  0
    7.8586  -11.1839    0.0000 C   0  0
    9.2796   -9.5296    0.0000 C   0  0
    7.8503   -9.5379    0.0000 C   0  0
    7.8503   -8.7087    0.0000 C   0  0
    9.2796   -8.7087    0.0000 C   0  0
    7.8544   -7.0627    0.0000 C   0  0
    9.2879  -11.1756    0.0000 C   0  0
   10.0005  -12.4090    0.0000 N   0  0
    6.4293  -11.1839    0.0000 C   0  0
    7.1419  -12.4257    0.0000 C   0  0
    7.1419  -10.7714    0.0000 C   0  0
    7.8586  -12.0132    0.0000 C   0  0
    5.0000  -12.0132    0.0000 F   0  0
    5.7126  -13.2508    0.0000 F   0  0
    5.5000  -11.6298    0.0000 F   0  0
    9.2838   -7.0627    0.0000 C   0  0
    8.5670   -5.8251    0.0000 C   0  0
    9.2838   -6.2376    0.0000 C   0  0
    9.2879  -12.0007    0.0000 C   0  0
   10.7172  -11.9923    0.0000 C   0  0
    9.9922  -10.7589    0.0000 C   0  0
    8.5670   -5.0000    0.0000 C   0  0
   10.7089  -11.1631    0.0000 C   0  0
  2 12  1  0
  3  8  1  0
  4 13  2  0
  5  1  1  0
  6  2  1  0
  7  3  1  0
  8 18  2  0
  9  7  1  0
 10  7  1  0
 11 10  1  0
 12  9  1  0
 13  6  1  0
 14  3  1  0
 15 26  1  0
 16  5  2  0
 17  5  1  0
 18 16  1  0
 19 17  2  0
 20  1  1  0
 21  1  1  0
 22  1  1  0
 23  6  2  0
 24  4  1  0
 25 23  1  0
 26 14  2  0
 27 30  1  0
 28 14  1  0
 29 24  1  0
 30 28  2  0
  8 19  1  0
 11  2  1  0
 27 15  2  0
 24 25  2  0
M  END
> <COMPOUND_ID>
DNDI1676782

$$$$

  SciTegic03121405392D

 30 33  0  0  0  0            999 V2000
    5.7126  -11.6011    0.0000 C   0  0
    8.5672   -7.4712    0.0000 N   0  0
    8.5714   -9.9425    0.0000 N   0  0
    8.5672   -6.6461    0.0000 C   0  0
    6.4294  -11.1885    0.0000 C   0  0
    8.5672   -9.1173    0.0000 C   0  0
    7.8588  -10.3592    0.0000 C   0  0
    7.8505   -5.4167    0.0000 N   0  0
    9.2799   -8.7048    0.0000 C   0  0
    7.8505   -8.7131    0.0000 C   0  0
    7.8505   -7.8838    0.0000 C   0  0
    9.2799   -7.8838    0.0000 C   0  0
    9.2840   -6.2377    0.0000 C   0  0
    9.2882  -10.3509    0.0000 C   0  0
   10.0008  -11.5844    0.0000 N   0  0
    6.4294  -10.3592    0.0000 C   0  0
    7.1420  -11.6011    0.0000 C   0  0
    7.1420   -9.9466    0.0000 C   0  0
    7.8588  -11.1885    0.0000 C   0  0
    5.0000  -11.1885    0.0000 F   0  0
    5.7126  -12.4262    0.0000 F   0  0
    5.5001  -10.8051    0.0000 F   0  0
    7.8546   -6.2377    0.0000 C   0  0
    9.2840   -5.4126    0.0000 C   0  0
    9.2882  -11.1760    0.0000 C   0  0
    8.5672   -5.0000    0.0000 C   0  0
   10.7176  -11.1677    0.0000 C   0  0
    9.9925   -9.9341    0.0000 C   0  0
    9.9966   -5.0000    0.0000 C   0  0
   10.7093  -10.3384    0.0000 C   0  0
  2 12  1  0
  3  7  1  0
  4  2  1  0
  5  1  1  0
  6  3  1  0
  7 18  2  0
  8 23  2  0
  9  6  1  0
 10  6  1  0
 11 10  1  0
 12  9  1  0
 13  4  2  0
 14  3  1  0
 15 25  1  0
 16  5  2  0
 17  5  1  0
 18 16  1  0
 19 17  2  0
 20  1  1  0
 21  1  1  0
 22  1  1  0
 23  4  1  0
 24 13  1  0
 25 14  2  0
 26  8  1  0
 27 30  1  0
 28 14  1  0
 29 24  1  0
 30 28  2  0
  7 19  1  0
 11  2  1  0
 27 15  2  0
 26 24  2  0
M  END
> <COMPOUND_ID>
DNDI1676783

$$$$

  SciTegic03121405392D

 33 36  0  0  0  0            999 V2000
    9.2981   -6.2369    0.0000 C   0  0
   10.0103   -6.6534    0.0000 C   0  0
    5.7163  -11.5929    0.0000 C   0  0
    8.5817   -6.6451    0.0000 C   0  0
    8.5776   -7.4697    0.0000 N   0  0
    8.5734   -9.9436    0.0000 N   0  0
    6.4285  -11.1764    0.0000 C   0  0
    8.5734   -9.1190    0.0000 C   0  0
    7.8571  -10.3559    0.0000 C   0  0
    7.8571   -8.7067    0.0000 C   0  0
    9.2897   -8.7067    0.0000 C   0  0
    9.2897   -7.8862    0.0000 C   0  0
    7.8612   -7.8820    0.0000 C   0  0
    9.2856  -10.3518    0.0000 C   0  0
    9.9978  -11.5929    0.0000 N   0  0
   10.0019   -7.4781    0.0000 F   0  0
   10.7266   -6.2453    0.0000 F   0  0
    9.4230   -7.2323    0.0000 F   0  0
    7.1490  -11.5887    0.0000 C   0  0
    6.4285  -10.3518    0.0000 C   0  0
    7.8612  -11.1764    0.0000 C   0  0
    7.1449   -9.9394    0.0000 C   0  0
    5.0000  -11.1806    0.0000 F   0  0
    5.7163  -12.4175    0.0000 F   0  0
    5.4998  -10.7932    0.0000 F   0  0
    9.2981   -5.4123    0.0000 C   0  0
    9.2856  -11.1806    0.0000 C   0  0
    7.8695   -6.2369    0.0000 C   0  0
   10.7141  -11.1806    0.0000 C   0  0
    9.9978   -9.9394    0.0000 C   0  0
    8.5859   -5.0000    0.0000 C   0  0
   10.7141  -10.3518    0.0000 C   0  0
    7.8695   -5.4123    0.0000 C   0  0
  2  1  1  0
  3  7  1  0
  4  1  2  0
  5  4  1  0
  6  8  1  0
  7 19  1  0
  8 10  1  0
  9  6  1  0
 10 13  1  0
 11 12  1  0
 12  5  1  0
 13  5  1  0
 14  6  1  0
 15 27  1  0
 16  2  1  0
 17  2  1  0
 18  2  1  0
 19 21  2  0
 20 22  1  0
 21  9  1  0
 22  9  2  0
 23  3  1  0
 24  3  1  0
 25  3  1  0
 26  1  1  0
 27 14  2  0
 28  4  1  0
 29 15  2  0
 30 14  1  0
 31 26  2  0
 32 30  2  0
 33 31  1  0
 28 33  2  0
 11  8  1  0
 32 29  1  0
  7 20  2  0
M  END
> <COMPOUND_ID>
DNDI1677867

$$$$

  SciTegic03121405392D

 31 34  0  0  0  0            999 V2000
    8.5710   -5.4125    0.0000 C   0  0
    8.5710   -8.7084    0.0000 N   0  0
    8.5751  -11.1794    0.0000 N   0  0
    5.0000  -13.2461    0.0000 N   0  0
    8.5710   -6.2375    0.0000 C   0  0
    5.7167  -12.8378    0.0000 C   0  0
    8.5710   -7.8834    0.0000 C   0  0
    8.5710  -10.3543    0.0000 C   0  0
    7.8626  -11.5960    0.0000 C   0  0
    7.8543   -9.9502    0.0000 C   0  0
    9.2835   -9.9418    0.0000 C   0  0
    9.2835   -9.1210    0.0000 C   0  0
    7.8543   -9.1210    0.0000 C   0  0
    9.2918  -11.5877    0.0000 C   0  0
   10.0043  -12.8211    0.0000 N   0  0
    9.2876   -6.6500    0.0000 C   0  0
    7.8543   -6.6542    0.0000 C   0  0
    9.2876   -7.4751    0.0000 C   0  0
    7.8584   -7.4751    0.0000 C   0  0
    9.2835   -5.0000    0.0000 F   0  0
    7.8543   -5.0000    0.0000 F   0  0
    9.3668   -5.6250    0.0000 F   0  0
    7.1459  -11.1835    0.0000 C   0  0
    7.8626  -12.4252    0.0000 C   0  0
    6.4334  -12.4252    0.0000 C   0  0
    6.4334  -11.5960    0.0000 C   0  0
    7.1459  -12.8378    0.0000 C   0  0
    9.2918  -12.4127    0.0000 C   0  0
   10.7210  -12.4044    0.0000 C   0  0
    9.9960  -11.1710    0.0000 C   0  0
   10.7127  -11.5752    0.0000 C   0  0
  2  7  1  0
  3  8  1  0
  4  6  3  0
  5  1  1  0
  6 25  1  0
  7 19  1  0
  8 10  1  0
  9  3  1  0
 10 13  1  0
 11 12  1  0
 12  2  1  0
 13  2  1  0
 14  3  1  0
 15 28  1  0
 16  5  2  0
 17  5  1  0
 18 16  1  0
 19 17  2  0
 20  1  1  0
 21  1  1  0
 22  1  1  0
 23  9  2  0
 24  9  1  0
 25 26  2  0
 26 23  1  0
 27 24  2  0
 28 14  2  0
 29 31  1  0
 30 14  1  0
 31 30  2  0
 18  7  2  0
 11  8  1  0
 27 25  1  0
 29 15  2  0
M  END
> <COMPOUND_ID>
DNDI1683149

$$$$

  SciTegic03121405392D

 31 34  0  0  0  0            999 V2000
    8.5703   -5.8291    0.0000 S   0  0
    8.5703   -9.1244    0.0000 N   0  0
    8.5745  -11.5949    0.0000 N   0  0
    5.0000  -13.6613    0.0000 N   0  0
    8.5703   -6.6540    0.0000 C   0  0
    5.7166  -13.2530    0.0000 C   0  0
    8.5703   -8.2996    0.0000 C   0  0
    8.5703  -10.7700    0.0000 C   0  0
    7.7704   -5.6124    0.0000 O   0  0
    9.3619   -5.6124    0.0000 O   0  0
    7.8621  -12.0115    0.0000 C   0  0
    7.8538  -10.3659    0.0000 C   0  0
    9.2827  -10.3576    0.0000 C   0  0
    9.2827   -9.5369    0.0000 C   0  0
    7.8538   -9.5369    0.0000 C   0  0
    9.2911  -12.0032    0.0000 C   0  0
   10.0035  -13.2364    0.0000 N   0  0
    9.2869   -7.0664    0.0000 C   0  0
    7.8538   -7.0706    0.0000 C   0  0
    9.2869   -7.8913    0.0000 C   0  0
    7.8579   -7.8913    0.0000 C   0  0
    7.8621  -12.8406    0.0000 C   0  0
    7.1455  -11.5991    0.0000 C   0  0
    6.4331  -12.8406    0.0000 C   0  0
    8.5620   -5.0000    0.0000 C   0  0
    6.4331  -12.0115    0.0000 C   0  0
    7.1455  -13.2530    0.0000 C   0  0
    9.2911  -12.8281    0.0000 C   0  0
   10.7200  -12.8198    0.0000 C   0  0
    9.9951  -11.5866    0.0000 C   0  0
   10.7117  -11.9907    0.0000 C   0  0
  2  7  1  0
  3  8  1  0
  4  6  3  0
  5  1  1  0
  6 24  1  0
  7 21  1  0
  8 12  1  0
  9  1  2  0
 10  1  2  0
 11  3  1  0
 12 15  1  0
 13 14  1  0
 14  2  1  0
 15  2  1  0
 16  3  1  0
 17 28  1  0
 18  5  2  0
 19  5  1  0
 20 18  1  0
 21 19  2  0
 22 11  1  0
 23 11  2  0
 24 26  2  0
 25  1  1  0
 26 23  1  0
 27 22  2  0
 28 16  2  0
 29 31  1  0
 30 16  1  0
 31 30  2  0
 20  7  2  0
 13  8  1  0
 27 24  1  0
 29 17  2  0
M  END
> <COMPOUND_ID>
DNDI1695343

$$$$

  SciTegic03121405392D

 30 33  0  0  0  0            999 V2000
    7.8537   -5.8290    0.0000 S   0  0
    7.8537   -9.1243    0.0000 N   0  0
    7.8579  -11.5947    0.0000 N   0  0
    7.8537   -6.6539    0.0000 C   0  0
    7.8537   -8.2995    0.0000 C   0  0
    7.8537  -10.7699    0.0000 C   0  0
    7.0538   -5.6124    0.0000 O   0  0
    8.6494   -5.6124    0.0000 O   0  0
    7.1455  -12.0113    0.0000 C   0  0
    7.1371  -10.3658    0.0000 C   0  0
    8.5661  -10.3574    0.0000 C   0  0
    8.5661   -9.5367    0.0000 C   0  0
    7.1371   -9.5367    0.0000 C   0  0
    8.5744  -12.0030    0.0000 C   0  0
    9.2868  -13.2361    0.0000 N   0  0
    8.5702   -7.0663    0.0000 C   0  0
    7.1371   -7.0705    0.0000 C   0  0
    8.5661   -7.8912    0.0000 C   0  0
    7.1413   -7.8912    0.0000 C   0  0
    7.1455  -12.8404    0.0000 C   0  0
    6.4289  -11.5989    0.0000 C   0  0
    7.8495   -5.0000    0.0000 C   0  0
    5.7165  -12.8404    0.0000 C   0  0
    5.7165  -12.0113    0.0000 C   0  0
    6.4289  -13.2528    0.0000 C   0  0
    5.0000  -13.2528    0.0000 Cl  0  0
    8.5744  -12.8279    0.0000 C   0  0
   10.0033  -12.8195    0.0000 C   0  0
    9.2785  -11.5864    0.0000 C   0  0
    9.9950  -11.9905    0.0000 C   0  0
  2  5  1  0
  3  6  1  0
  4  1  1  0
  5 19  1  0
  6 11  1  0
  7  1  2  0
  8  1  2  0
  9  3  1  0
 10 13  1  0
 11 12  1  0
 12  2  1  0
 13  2  1  0
 14  3  1  0
 15 27  1  0
 16  4  2  0
 17  4  1  0
 18 16  1  0
 19 17  2  0
 20  9  1  0
 21  9  2  0
 22  1  1  0
 23 24  2  0
 24 21  1  0
 25 20  2  0
 26 23  1  0
 27 14  2  0
 28 30  1  0
 29 14  1  0
 30 29  2  0
 18  5  2  0
 10  6  1  0
 25 23  1  0
 28 15  2  0
M  END
> <COMPOUND_ID>
DNDI1695344

$$$$

  SciTegic03121405392D

 29 32  0  0  0  0            999 V2000
    8.5752   -8.2960    0.0000 N   0  0
    8.5752   -7.4710    0.0000 C   0  0
    9.2878   -7.0626    0.0000 C   0  0
    8.5794  -10.7670    0.0000 N   0  0
    5.0000  -12.8338    0.0000 N   0  0
    9.2919   -6.2376    0.0000 C   0  0
    5.7209  -12.4254    0.0000 C   0  0
    8.5752   -9.9420    0.0000 C   0  0
    7.8668  -11.1837    0.0000 C   0  0
    7.8585   -9.5378    0.0000 C   0  0
    9.2878   -9.5294    0.0000 C   0  0
    9.2878   -8.7086    0.0000 C   0  0
    7.8585   -8.7086    0.0000 C   0  0
    8.5752   -5.8251    0.0000 C   0  0
    9.2961  -11.1754    0.0000 C   0  0
   10.0086  -12.4088    0.0000 N   0  0
    7.8627   -7.0626    0.0000 C   0  0
    7.8585   -6.2417    0.0000 C   0  0
    7.1501  -10.7712    0.0000 C   0  0
    7.8668  -12.0129    0.0000 C   0  0
    6.4376  -12.0129    0.0000 C   0  0
   10.0045   -5.8251    0.0000 F   0  0
    8.5752   -5.0000    0.0000 F   0  0
    6.4376  -11.1837    0.0000 C   0  0
    7.1501  -12.4254    0.0000 C   0  0
    9.2961  -12.0004    0.0000 C   0  0
   10.7253  -11.9921    0.0000 C   0  0
   10.0003  -10.7587    0.0000 C   0  0
   10.7170  -11.1629    0.0000 C   0  0
  2  1  1  0
  3  2  2  0
  4  8  1  0
  5  7  3  0
  6  3  1  0
  7 21  1  0
  8 10  1  0
  9  4  1  0
 10 13  1  0
 11 12  1  0
 12  1  1  0
 13  1  1  0
 14 18  1  0
 15  4  1  0
 16 26  1  0
 17  2  1  0
 18 17  2  0
 19  9  2  0
 20  9  1  0
 21 24  2  0
 22  6  1  0
 23 14  1  0
 24 19  1  0
 25 20  2  0
 26 15  2  0
 27 29  1  0
 28 15  1  0
 29 28  2  0
 11  8  1  0
 14  6  2  0
 25 21  1  0
 27 16  2  0
M  END
> <COMPOUND_ID>
DNDI1697551

$$$$

  SciTegic03121405392D

 28 30  0  0  0  0            999 V2000
    5.7125  -11.1920    0.0000 C   0  0
    8.5711   -9.5336    0.0000 N   0  0
    8.5669   -7.0626    0.0000 N   0  0
    6.4293  -10.7795    0.0000 C   0  0
    8.5669   -8.7086    0.0000 C   0  0
    7.8585   -9.9503    0.0000 C   0  0
    9.2794   -8.2960    0.0000 C   0  0
    7.8502   -8.3044    0.0000 C   0  0
    9.2878   -9.9420    0.0000 C   0  0
   10.0003  -11.1754    0.0000 N   0  0
    8.5669   -6.2376    0.0000 C   0  0
    9.2794   -5.8250    0.0000 C   0  0
    7.1418  -11.1920    0.0000 C   0  0
    6.4293   -9.9503    0.0000 C   0  0
    7.8585  -10.7795    0.0000 C   0  0
    7.1418   -9.5378    0.0000 C   0  0
    5.0000  -10.7795    0.0000 F   0  0
    5.7125  -12.0171    0.0000 F   0  0
    5.5000  -10.3962    0.0000 F   0  0
    7.8502   -7.4751    0.0000 C   0  0
    9.2794   -7.4751    0.0000 C   0  0
    9.9961   -6.2376    0.0000 O   0  0
    9.2878  -10.7670    0.0000 C   0  0
   10.7170  -10.7587    0.0000 C   0  0
    9.2794   -5.0000    0.0000 C   0  0
    8.4836   -5.6125    0.0000 C   0  0
    9.9920   -9.5253    0.0000 C   0  0
   10.7087   -9.9295    0.0000 C   0  0
  2  6  1  0
  3 20  1  0
  4  1  1  0
  5  2  1  0
  6 16  2  0
  7  5  1  0
  8  5  1  0
  9  2  1  0
 10 23  1  0
 11  3  1  0
 12 11  1  0
 13  4  1  0
 14  4  2  0
 15 13  2  0
 16 14  1  0
 17  1  1  0
 18  1  1  0
 19  1  1  0
 20  8  1  0
 21  7  1  0
 22 12  1  0
 23  9  2  0
 24 28  1  0
 25 12  1  0
 26 12  1  0
 27  9  1  0
 28 27  2  0
  6 15  1  0
  3 21  1  0
 24 10  2  0
M  END
> <COMPOUND_ID>
DNDI1703790

$$$$

  SciTegic03121405392D

 33 36  0  0  0  0            999 V2000
   10.0004   -6.6501    0.0000 S   0  0
    9.2879   -6.2376    0.0000 C   0  0
    8.5711   -6.6459    0.0000 C   0  0
    8.5711   -7.4710    0.0000 N   0  0
   10.7130   -7.0585    0.0000 N   0  0
    8.5753   -9.9421    0.0000 N   0  0
    5.0000  -12.0089    0.0000 N   0  0
   10.5838   -6.0584    0.0000 O   0  0
    9.9963   -7.4710    0.0000 O   0  0
    5.7167  -11.6005    0.0000 C   0  0
    8.5711   -9.1170    0.0000 C   0  0
    7.8628  -10.3588    0.0000 C   0  0
    9.2837   -8.7044    0.0000 C   0  0
    7.8544   -8.7128    0.0000 C   0  0
    7.8544   -7.8835    0.0000 C   0  0
    9.2837   -7.8835    0.0000 C   0  0
    9.2920  -10.3504    0.0000 C   0  0
   10.0046  -11.5839    0.0000 N   0  0
    7.1460   -9.9462    0.0000 C   0  0
    7.8628  -11.1880    0.0000 C   0  0
    6.4335  -11.1880    0.0000 C   0  0
    9.2879   -5.4125    0.0000 C   0  0
    7.1460  -11.6005    0.0000 C   0  0
    6.4335  -10.3588    0.0000 C   0  0
    9.2920  -11.1755    0.0000 C   0  0
    7.8586   -6.2376    0.0000 C   0  0
   10.9255   -7.8585    0.0000 C   0  0
   11.4256   -6.6459    0.0000 C   0  0
   10.7213  -11.1672    0.0000 C   0  0
    9.9963   -9.9337    0.0000 C   0  0
    8.5711   -5.0000    0.0000 C   0  0
   10.7130  -10.3379    0.0000 C   0  0
    7.8544   -5.4167    0.0000 C   0  0
  2  1  1  0
  3  2  2  0
  4  3  1  0
  5  1  1  0
  6 11  1  0
  7 10  3  0
  8  1  2  0
  9  1  2  0
 10 21  1  0
 11 14  1  0
 12  6  1  0
 13 16  1  0
 14 15  1  0
 15  4  1  0
 16  4  1  0
 17  6  1  0
 18 25  1  0
 19 12  2  0
 20 12  1  0
 21 24  2  0
 22  2  1  0
 23 20  2  0
 24 19  1  0
 25 17  2  0
 26  3  1  0
 27  5  1  0
 28  5  1  0
 29 18  2  0
 30 17  1  0
 31 22  2  0
 32 30  2  0
 33 31  1  0
 26 33  2  0
 13 11  1  0
 32 29  1  0
 23 21  1  0
M  END
> <COMPOUND_ID>
DNDI1713038

$$$$

  SciTegic03121405392D

 35 38  0  0  0  0            999 V2000
    9.9978   -6.2421    0.0000 S   0  0
    9.2850   -6.6548    0.0000 C   0  0
    5.7128  -12.8447    0.0000 C   0  0
    8.5681   -8.7139    0.0000 N   0  0
    9.2850   -7.4801    0.0000 C   0  0
    8.5722  -11.1857    0.0000 N   0  0
   10.7106   -5.8253    0.0000 N   0  0
    8.5681   -7.8886    0.0000 C   0  0
   10.5772   -6.8257    0.0000 O   0  0
    9.9894   -5.4168    0.0000 O   0  0
    6.4297  -12.4320    0.0000 C   0  0
    8.5681  -10.3604    0.0000 C   0  0
    7.8594  -11.6025    0.0000 C   0  0
    7.8511   -9.9561    0.0000 C   0  0
    9.2808   -9.9477    0.0000 C   0  0
    9.2808   -9.1266    0.0000 C   0  0
    7.8511   -9.1266    0.0000 C   0  0
    9.2892  -11.5942    0.0000 C   0  0
   10.0019  -12.8280    0.0000 N   0  0
    6.4297  -11.6025    0.0000 C   0  0
    7.1425  -12.8447    0.0000 C   0  0
    7.1425  -11.1899    0.0000 C   0  0
    7.8594  -12.4320    0.0000 C   0  0
    5.0000  -12.4320    0.0000 F   0  0
    5.7128  -13.6700    0.0000 F   0  0
    5.5002  -12.0485    0.0000 F   0  0
    8.5681   -6.2421    0.0000 C   0  0
    9.2892  -12.4195    0.0000 C   0  0
    7.8553   -7.4801    0.0000 C   0  0
    7.8511   -6.6589    0.0000 C   0  0
   11.5025   -6.0379    0.0000 C   0  0
   10.7022   -5.0000    0.0000 C   0  0
   10.7189  -12.4112    0.0000 C   0  0
    9.9936  -11.1774    0.0000 C   0  0
   10.7106  -11.5817    0.0000 C   0  0
  2  1  1  0
  3 11  1  0
  4  8  1  0
  5  2  1  0
  6 12  1  0
  7  1  1  0
  8  5  2  0
  9  1  2  0
 10  1  2  0
 11 20  2  0
 12 14  1  0
 13  6  1  0
 14 17  1  0
 15 16  1  0
 16  4  1  0
 17  4  1  0
 18  6  1  0
 19 28  1  0
 20 22  1  0
 21 23  2  0
 22 13  2  0
 23 13  1  0
 24  3  1  0
 25  3  1  0
 26  3  1  0
 27  2  2  0
 28 18  2  0
 29 30  2  0
 30 27  1  0
 31  7  1  0
 32  7  1  0
 33 35  1  0
 34 18  1  0
 35 34  2  0
  8 29  1  0
 15 12  1  0
 21 11  1  0
 33 19  2  0
M  END
> <COMPOUND_ID>
DNDI1713039

$$$$

  SciTegic03121405392D

 33 36  0  0  0  0            999 V2000
    9.9997   -6.2416    0.0000 S   0  0
    9.2873   -6.6540    0.0000 C   0  0
    8.5706   -8.7123    0.0000 N   0  0
    9.2873   -7.4790    0.0000 C   0  0
    8.5748  -11.1829    0.0000 N   0  0
   10.7122   -5.8249    0.0000 N   0  0
    8.5706   -7.8873    0.0000 C   0  0
    5.0000  -13.2495    0.0000 N   0  0
    9.9956   -5.4124    0.0000 O   0  0
   10.5830   -6.8249    0.0000 O   0  0
    5.7166  -12.8412    0.0000 C   0  0
    8.5706  -10.3580    0.0000 C   0  0
    7.8623  -11.5996    0.0000 C   0  0
    9.2831   -9.9455    0.0000 C   0  0
    7.8540   -9.9539    0.0000 C   0  0
    7.8540   -9.1247    0.0000 C   0  0
    9.2831   -9.1247    0.0000 C   0  0
    9.2914  -11.5913    0.0000 C   0  0
   10.0039  -12.8245    0.0000 N   0  0
    7.8623  -12.4287    0.0000 C   0  0
    7.1457  -11.1871    0.0000 C   0  0
    6.4333  -12.4287    0.0000 C   0  0
    7.1457  -12.8412    0.0000 C   0  0
    6.4333  -11.5996    0.0000 C   0  0
    8.5706   -6.2416    0.0000 C   0  0
    9.2914  -12.4162    0.0000 C   0  0
    7.8582   -7.4790    0.0000 C   0  0
    7.8540   -6.6582    0.0000 C   0  0
   11.5080   -6.0374    0.0000 C   0  0
   10.7080   -5.0000    0.0000 C   0  0
   10.7205  -12.4079    0.0000 C   0  0
    9.9956  -11.1746    0.0000 C   0  0
   10.7122  -11.5788    0.0000 C   0  0
  2  1  1  0
  3  7  1  0
  4  2  1  0
  5 12  1  0
  6  1  1  0
  7  4  2  0
  8 11  3  0
  9  1  2  0
 10  1  2  0
 11 22  1  0
 12 15  1  0
 13  5  1  0
 14 17  1  0
 15 16  1  0
 16  3  1  0
 17  3  1  0
 18  5  1  0
 19 26  1  0
 20 13  1  0
 21 13  2  0
 22 24  2  0
 23 20  2  0
 24 21  1  0
 25  2  2  0
 26 18  2  0
 27 28  2  0
 28 25  1  0
 29  6  1  0
 30  6  1  0
 31 33  1  0
 32 18  1  0
 33 32  2  0
  7 27  1  0
 14 12  1  0
 23 22  1  0
 31 19  2  0
M  END
> <COMPOUND_ID>
DNDI1713040

$$$$

  SciTegic03121405392D

 29 31  0  0  0  0            999 V2000
    5.7125  -11.1913    0.0000 C   0  0
    8.5665   -7.0624    0.0000 N   0  0
    8.5706   -9.5331    0.0000 N   0  0
    6.4291  -10.7789    0.0000 C   0  0
    8.5665   -6.2375    0.0000 C   0  0
    8.5665   -8.7082    0.0000 C   0  0
    7.8582   -9.9498    0.0000 C   0  0
    7.8498   -8.3040    0.0000 C   0  0
    9.2789   -8.2957    0.0000 C   0  0
    9.2789   -7.4749    0.0000 C   0  0
    7.8498   -7.4749    0.0000 C   0  0
    9.2789   -5.8250    0.0000 C   0  0
    9.2873   -9.9414    0.0000 C   0  0
    9.9997  -11.1747    0.0000 N   0  0
    9.2789   -5.0000    0.0000 O   0  0
    6.4291   -9.9498    0.0000 C   0  0
    7.1415  -11.1913    0.0000 C   0  0
    7.1415   -9.5373    0.0000 C   0  0
    7.8582  -10.7789    0.0000 C   0  0
    5.5000  -10.3956    0.0000 F   0  0
    5.0000  -10.7789    0.0000 F   0  0
    5.7125  -12.0163    0.0000 F   0  0
    9.2873  -10.7664    0.0000 C   0  0
    7.8498   -5.8250    0.0000 C   0  0
   10.7163  -10.7580    0.0000 C   0  0
    9.9955   -6.2375    0.0000 C   0  0
    9.9914   -9.5248    0.0000 C   0  0
   10.7080   -9.9289    0.0000 C   0  0
    7.1332   -6.2333    0.0000 C   0  0
  2 11  1  0
  3  7  1  0
  4  1  1  0
  5  2  1  0
  6  3  1  0
  7 18  2  0
  8  6  1  0
  9  6  1  0
 10  9  1  0
 11  8  1  0
 12  5  1  0
 13  3  1  0
 14 23  1  0
 15 12  2  0
 16  4  2  0
 17  4  1  0
 18 16  1  0
 19 17  2  0
 20  1  1  0
 21  1  1  0
 22  1  1  0
 23 13  2  0
 24  5  1  0
 25 14  2  0
 26 12  1  0
 27 13  1  0
 28 27  2  0
 29 24  1  0
  7 19  1  0
  2 10  1  0
 28 25  1  0
M  END
> <COMPOUND_ID>
DNDI1713041

$$$$

  SciTegic03121405392D

 37 40  0  0  0  0            999 V2000
   10.0041   -7.8875    0.0000 S   0  0
    9.2874   -7.4750    0.0000 C   0  0
    8.5749   -7.8833    0.0000 C   0  0
    8.5749   -5.4125    0.0000 C   0  0
    9.2916   -6.6500    0.0000 C   0  0
    8.5749   -8.7083    0.0000 N   0  0
    8.5749   -6.2375    0.0000 C   0  0
   10.8249   -7.8833    0.0000 N   0  0
    8.5791  -11.1791    0.0000 N   0  0
    5.0000  -13.2457    0.0000 N   0  0
    9.9999   -8.7083    0.0000 O   0  0
   10.2124   -7.0833    0.0000 O   0  0
    7.8624   -7.4750    0.0000 C   0  0
    5.7208  -12.8374    0.0000 C   0  0
    8.5749  -10.3541    0.0000 C   0  0
    7.8666  -11.5957    0.0000 C   0  0
    9.2874   -9.9416    0.0000 C   0  0
    7.8583   -9.9499    0.0000 C   0  0
    7.8583   -9.1208    0.0000 C   0  0
    9.2874   -9.1208    0.0000 C   0  0
    7.8583   -6.6542    0.0000 C   0  0
    9.2957  -11.5874    0.0000 C   0  0
   10.0082  -12.8207    0.0000 N   0  0
    9.3707   -5.6250    0.0000 F   0  0
    9.2874   -5.0000    0.0000 F   0  0
    7.8583   -5.0000    0.0000 F   0  0
    7.1500  -11.1832    0.0000 C   0  0
    7.8666  -12.4249    0.0000 C   0  0
    6.4375  -12.4249    0.0000 C   0  0
    6.4375  -11.5957    0.0000 C   0  0
    7.1500  -12.8374    0.0000 C   0  0
    9.2957  -12.4124    0.0000 C   0  0
   11.2415   -8.6000    0.0000 C   0  0
   11.2374   -7.1708    0.0000 C   0  0
   10.7249  -12.4040    0.0000 C   0  0
    9.9999  -11.1707    0.0000 C   0  0
   10.7166  -11.5749    0.0000 C   0  0
  2  1  1  0
  3  2  2  0
  4  7  1  0
  5  2  1  0
  6  3  1  0
  7  5  2  0
  8  1  1  0
  9 15  1  0
 10 14  3  0
 11  1  2  0
 12  1  2  0
 13  3  1  0
 14 29  1  0
 15 18  1  0
 16  9  1  0
 17 20  1  0
 18 19  1  0
 19  6  1  0
 20  6  1  0
 21  7  1  0
 22  9  1  0
 23 32  1  0
 24  4  1  0
 25  4  1  0
 26  4  1  0
 27 16  2  0
 28 16  1  0
 29 30  2  0
 30 27  1  0
 31 28  2  0
 32 22  2  0
 33  8  1  0
 34  8  1  0
 35 37  1  0
 36 22  1  0
 37 36  2  0
 13 21  2  0
 17 15  1  0
 31 29  1  0
 35 23  2  0
M  END
> <COMPOUND_ID>
DNDI1713296

$$$$

  SciTegic03121405392D

 28 30  0  0  0  0            999 V2000
    5.7126  -11.1921    0.0000 C   0  0
    8.5670   -7.0626    0.0000 N   0  0
    8.5711   -9.5337    0.0000 N   0  0
    6.4293  -10.7796    0.0000 C   0  0
    8.5670   -6.2376    0.0000 C   0  0
    8.5670   -8.7086    0.0000 C   0  0
    7.8586   -9.9504    0.0000 C   0  0
    9.2795   -8.2961    0.0000 C   0  0
    7.8502   -8.3044    0.0000 C   0  0
    7.8502   -7.4752    0.0000 C   0  0
    9.2795   -7.4752    0.0000 C   0  0
    7.8502   -5.8250    0.0000 C   0  0
    9.2878   -9.9420    0.0000 C   0  0
   10.0004  -11.1755    0.0000 N   0  0
    7.8502   -5.0000    0.0000 O   0  0
    6.4293   -9.9504    0.0000 C   0  0
    7.1418  -11.1921    0.0000 C   0  0
    7.1418   -9.5378    0.0000 C   0  0
    7.8586  -10.7796    0.0000 C   0  0
    5.5000  -10.3962    0.0000 F   0  0
    5.0000  -10.7796    0.0000 F   0  0
    5.7126  -12.0172    0.0000 F   0  0
    9.2878  -10.7671    0.0000 C   0  0
   10.7171  -10.7588    0.0000 C   0  0
    9.2795   -5.8250    0.0000 C   0  0
    7.1377   -6.2376    0.0000 C   0  0
    9.9921   -9.5253    0.0000 C   0  0
   10.7088   -9.9295    0.0000 C   0  0
  2 10  1  0
  3  7  1  0
  4  1  1  0
  5  2  1  0
  6  3  1  0
  7 18  2  0
  8  6  1  0
  9  6  1  0
 10  9  1  0
 11  8  1  0
 12  5  1  0
 13  3  1  0
 14 23  1  0
 15 12  2  0
 16  4  2  0
 17  4  1  0
 18 16  1  0
 19 17  2  0
 20  1  1  0
 21  1  1  0
 22  1  1  0
 23 13  2  0
 24 14  2  0
 25  5  1  0
 26 12  1  0
 27 13  1  0
 28 27  2  0
  7 19  1  0
  2 11  1  0
 28 24  1  0
M  END
> <COMPOUND_ID>
DNDI1713297

$$$$

  SciTegic03121405392D

 28 30  0  0  0  0            999 V2000
    5.7126  -11.1927    0.0000 C   0  0
    8.5673   -7.0628    0.0000 N   0  0
    8.5714   -9.5341    0.0000 N   0  0
    6.4294  -10.7801    0.0000 C   0  0
    8.5673   -8.7089    0.0000 C   0  0
    8.5673   -6.2377    0.0000 C   0  0
    7.8588   -9.9508    0.0000 C   0  0
    9.2799   -8.2964    0.0000 C   0  0
    7.8505   -8.3047    0.0000 C   0  0
    7.8505   -7.4754    0.0000 C   0  0
    9.2799   -7.4754    0.0000 C   0  0
    9.2882   -9.9425    0.0000 C   0  0
   10.0008  -11.1760    0.0000 N   0  0
    6.4294   -9.9550    0.0000 C   0  0
    7.1420  -11.1927    0.0000 C   0  0
    7.1420   -9.5382    0.0000 C   0  0
    7.8588  -10.7801    0.0000 C   0  0
    5.0000  -10.7801    0.0000 F   0  0
    5.7126  -12.0178    0.0000 F   0  0
    5.5001  -10.3967    0.0000 F   0  0
    7.8505   -5.8251    0.0000 C   0  0
    9.2882  -10.7676    0.0000 C   0  0
    7.8505   -5.0000    0.0000 O   0  0
   10.7176  -10.7593    0.0000 C   0  0
    9.2799   -5.8251    0.0000 C   0  0
    9.9925   -9.5257    0.0000 C   0  0
    7.1379   -6.2377    0.0000 C   0  0
   10.7093   -9.9300    0.0000 C   0  0
  2 10  1  0
  3  7  1  0
  4  1  1  0
  5  3  1  0
  6  2  1  0
  7 16  2  0
  8  5  1  0
  9  5  1  0
 10  9  1  0
 11  8  1  0
 12  3  1  0
 13 22  1  0
 14  4  2  0
 15  4  1  0
 16 14  1  0
 17 15  2  0
 18  1  1  0
 19  1  1  0
 20  1  1  0
 21  6  1  0
 22 12  2  0
 23 21  1  0
 24 13  2  0
 25  6  1  0
 26 12  1  0
 27 21  1  0
 28 26  2  0
  7 17  1  0
  2 11  1  0
 28 24  1  0
M  END
> <COMPOUND_ID>
DNDI1713298

$$$$

  SciTegic03121405392D

 27 29  0  0  0  0            999 V2000
    5.7125  -10.3670    0.0000 C   0  0
    8.5669   -6.2376    0.0000 N   0  0
    8.5711   -8.7086    0.0000 N   0  0
    8.5669   -5.4126    0.0000 C   0  0
    6.4293   -9.9545    0.0000 C   0  0
    8.5669   -7.8836    0.0000 C   0  0
    7.8585   -9.1253    0.0000 C   0  0
    7.8502   -7.4794    0.0000 C   0  0
    9.2794   -7.4710    0.0000 C   0  0
    9.2794   -6.6501    0.0000 C   0  0
    7.8502   -6.6501    0.0000 C   0  0
    9.2878   -9.1170    0.0000 C   0  0
   10.0003  -10.3504    0.0000 N   0  0
    6.4293   -9.1253    0.0000 C   0  0
    7.1418  -10.3670    0.0000 C   0  0
    7.1418   -8.7128    0.0000 C   0  0
    7.8585   -9.9545    0.0000 C   0  0
    5.0000   -9.9545    0.0000 F   0  0
    5.7125  -11.1921    0.0000 F   0  0
    5.5000   -9.5712    0.0000 F   0  0
    9.2878   -9.9420    0.0000 C   0  0
    9.2794   -5.0000    0.0000 C   0  0
    7.8502   -5.0000    0.0000 C   0  0
    9.3628   -5.6251    0.0000 C   0  0
   10.7170   -9.9337    0.0000 C   0  0
    9.9920   -8.7003    0.0000 C   0  0
   10.7087   -9.1045    0.0000 C   0  0
  2 11  1  0
  3  7  1  0
  4  2  1  0
  5  1  1  0
  6  3  1  0
  7 17  1  0
  8  6  1  0
  9  6  1  0
 10  9  1  0
 11  8  1  0
 12  3  1  0
 13 21  1  0
 14  5  2  0
 15  5  1  0
 16 14  1  0
 17 15  2  0
 18  1  1  0
 19  1  1  0
 20  1  1  0
 21 12  2  0
 22  4  1  0
 23  4  1  0
 24  4  1  0
 25 13  2  0
 26 12  1  0
 27 26  2  0
 16  7  2  0
  2 10  1  0
 27 25  1  0
M  END
> <COMPOUND_ID>
DNDI1720692

$$$$

  SciTegic03121405392D

 35 38  0  0  0  0            999 V2000
    8.5673   -5.4167    0.0000 C   0  0
    9.2840   -7.4796    0.0000 C   0  0
    5.7126  -12.8430    0.0000 C   0  0
    8.5714   -8.7089    0.0000 N   0  0
    8.5714   -7.8838    0.0000 C   0  0
    8.5714   -6.2419    0.0000 C   0  0
    8.5714  -11.1844    0.0000 N   0  0
    9.9967   -7.8921    0.0000 C   0  0
   10.7093   -8.3047    0.0000 N   0  0
    9.2840   -6.6544    0.0000 C   0  0
    6.4294  -12.4304    0.0000 C   0  0
    7.8546   -7.4796    0.0000 C   0  0
    8.5673  -10.3592    0.0000 C   0  0
    7.8588  -11.6011    0.0000 C   0  0
    7.8546   -9.9508    0.0000 C   0  0
    9.2840   -9.9466    0.0000 C   0  0
    9.2840   -9.1257    0.0000 C   0  0
    7.8546   -9.1257    0.0000 C   0  0
    7.8505   -6.6586    0.0000 C   0  0
    9.2882  -11.5928    0.0000 C   0  0
   10.0008  -12.8263    0.0000 N   0  0
    6.4294  -11.6053    0.0000 C   0  0
    7.1420  -12.8430    0.0000 C   0  0
    7.1420  -11.1885    0.0000 C   0  0
    7.8588  -12.4304    0.0000 C   0  0
    9.2840   -5.0000    0.0000 F   0  0
    7.8546   -5.0042    0.0000 F   0  0
    9.3674   -5.6293    0.0000 F   0  0
    5.5001  -12.0470    0.0000 F   0  0
    5.0000  -12.4304    0.0000 F   0  0
    5.7126  -13.6681    0.0000 F   0  0
    9.2882  -12.4179    0.0000 C   0  0
   10.7176  -12.4096    0.0000 C   0  0
    9.9925  -11.1760    0.0000 C   0  0
   10.7093  -11.5803    0.0000 C   0  0
  2 10  1  0
  3 11  1  0
  4  5  1  0
  5 12  1  0
  6  1  1  0
  7 13  1  0
  8  2  1  0
  9  8  3  0
 10  6  2  0
 11 22  2  0
 12 19  2  0
 13 15  1  0
 14  7  1  0
 15 18  1  0
 16 17  1  0
 17  4  1  0
 18  4  1  0
 19  6  1  0
 20  7  1  0
 21 32  1  0
 22 24  1  0
 23 25  2  0
 24 14  2  0
 25 14  1  0
 26  1  1  0
 27  1  1  0
 28  1  1  0
 29  3  1  0
 30  3  1  0
 31  3  1  0
 32 20  2  0
 33 35  1  0
 34 20  1  0
 35 34  2  0
  2  5  2  0
 16 13  1  0
 23 11  1  0
 33 21  2  0
M  END
> <COMPOUND_ID>
DNDI1720693

$$$$

  SciTegic03121405392D

 32 35  0  0  0  0            999 V2000
    7.8544   -5.4167    0.0000 C   0  0
    8.5711   -7.4794    0.0000 C   0  0
    7.8586   -8.7087    0.0000 N   0  0
    7.8586   -7.8836    0.0000 C   0  0
    7.8586   -6.2418    0.0000 C   0  0
    7.8586  -11.1838    0.0000 N   0  0
    9.2837   -7.8919    0.0000 C   0  0
    9.9962   -8.3045    0.0000 N   0  0
    8.5711   -6.6543    0.0000 C   0  0
    7.1418   -7.4794    0.0000 C   0  0
    7.8544  -10.3588    0.0000 C   0  0
    7.1460  -11.6005    0.0000 C   0  0
    8.5711   -9.9462    0.0000 C   0  0
    7.1418   -9.9504    0.0000 C   0  0
    7.1418   -9.1253    0.0000 C   0  0
    8.5711   -9.1253    0.0000 C   0  0
    7.1377   -6.6585    0.0000 C   0  0
    8.5753  -11.5922    0.0000 C   0  0
    9.2878  -12.8256    0.0000 N   0  0
    8.6544   -5.6292    0.0000 F   0  0
    8.5711   -5.0000    0.0000 F   0  0
    7.1418   -5.0042    0.0000 F   0  0
    6.4293  -11.1880    0.0000 C   0  0
    7.1460  -12.4298    0.0000 C   0  0
    5.7167  -12.4298    0.0000 C   0  0
    5.7167  -11.6047    0.0000 C   0  0
    6.4293  -12.8423    0.0000 C   0  0
    5.0000  -12.8423    0.0000 Cl  0  0
    8.5753  -12.4173    0.0000 C   0  0
   10.0045  -12.4089    0.0000 C   0  0
    9.2795  -11.1755    0.0000 C   0  0
    9.9962  -11.5797    0.0000 C   0  0
  2  9  1  0
  3  4  1  0
  4 10  1  0
  5  1  1  0
  6 11  1  0
  7  2  1  0
  8  7  3  0
  9  5  2  0
 10 17  2  0
 11 14  1  0
 12  6  1  0
 13 16  1  0
 14 15  1  0
 15  3  1  0
 16  3  1  0
 17  5  1  0
 18  6  1  0
 19 29  1  0
 20  1  1  0
 21  1  1  0
 22  1  1  0
 23 12  2  0
 24 12  1  0
 25 26  2  0
 26 23  1  0
 27 24  2  0
 28 25  1  0
 29 18  2  0
 30 32  1  0
 31 18  1  0
 32 31  2  0
  2  4  2  0
 13 11  1  0
 27 25  1  0
 30 19  2  0
M  END
> <COMPOUND_ID>
DNDI1720694

$$$$

  SciTegic03121405392D

 32 36  0  0  0  0            999 V2000
    8.5681   -7.7511    0.0000 C   0  0
    9.2350   -7.2676    0.0000 C   0  0
    7.9012   -7.2676    0.0000 N   0  0
    8.1554   -6.4839    0.0000 N   0  0
    8.9808   -6.4839    0.0000 C   0  0
    8.5681   -8.5764    0.0000 N   0  0
    5.7128  -12.7073    0.0000 C   0  0
    9.4643   -5.8170    0.0000 C   0  0
    8.5723  -11.0483    0.0000 N   0  0
    9.5518   -5.0000    0.0000 C   0  0
   10.2188   -5.4835    0.0000 C   0  0
    6.4297  -12.2946    0.0000 C   0  0
    8.5681  -10.2229    0.0000 C   0  0
    7.8595  -11.4651    0.0000 C   0  0
    7.8512   -8.9891    0.0000 C   0  0
    9.2809   -8.9891    0.0000 C   0  0
    7.8512   -9.8186    0.0000 C   0  0
    9.2809   -9.8103    0.0000 C   0  0
    9.2892  -11.4568    0.0000 C   0  0
   10.0020  -12.6906    0.0000 N   0  0
    7.1425  -12.7073    0.0000 C   0  0
    6.4297  -11.4693    0.0000 C   0  0
    7.8595  -12.2946    0.0000 C   0  0
    7.1425  -11.0524    0.0000 C   0  0
    5.0000  -12.2946    0.0000 F   0  0
    5.7128  -13.5326    0.0000 F   0  0
    5.5002  -11.9111    0.0000 F   0  0
    7.1134   -7.5260    0.0000 C   0  0
    9.2892  -12.2821    0.0000 C   0  0
   10.7190  -12.2738    0.0000 C   0  0
    9.9937  -11.0399    0.0000 C   0  0
   10.7106  -11.4443    0.0000 C   0  0
  2  1  2  0
  3  1  1  0
  4  3  1  0
  5  2  1  0
  6  1  1  0
  7 12  1  0
  8  5  1  0
  9 13  1  0
 10  8  1  0
 11  8  1  0
 12 22  2  0
 13 17  1  0
 14  9  1  0
 15  6  1  0
 16  6  1  0
 17 15  1  0
 18 16  1  0
 19  9  1  0
 20 29  1  0
 21 23  2  0
 22 24  1  0
 23 14  1  0
 24 14  2  0
 25  7  1  0
 26  7  1  0
 27  7  1  0
 28  3  1  0
 29 19  2  0
 30 20  2  0
 31 19  1  0
 32 31  2  0
  4  5  2  0
 18 13  1  0
 11 10  1  0
 21 12  1  0
 32 30  1  0
M  END
> <COMPOUND_ID>
DNDI1720695

$$$$

  SciTegic03121405392D

 26 28  0  0  0  0            999 V2000
    8.5300   -7.0677    0.0000 N   0  0
    8.5799   -9.5397    0.0000 N   0  0
    8.5146   -6.2444    0.0000 C   0  0
    9.2229   -5.8174    0.0000 C   0  0
    8.5609   -8.7143    0.0000 C   0  0
    7.8387   -8.3237    0.0000 C   0  0
    9.2672   -8.2910    0.0000 C   0  0
    9.2534   -7.4734    0.0000 C   0  0
    7.8253   -7.4967    0.0000 C   0  0
    9.2075   -5.0000    0.0000 O   0  0
   10.0161   -5.5899    0.0000 C   0  0
    9.8141   -6.3928    0.0000 C   0  0
    5.0000  -11.6068    0.0000 N   0  0
    5.7210  -11.1984    0.0000 C   0  0
    9.2968   -9.9481    0.0000 C   0  0
    7.8673   -9.9564    0.0000 C   0  0
   10.0094  -11.1817    0.0000 N   0  0
    7.8673  -10.7858    0.0000 C   0  0
    7.1505   -9.5439    0.0000 C   0  0
    6.4378  -10.7858    0.0000 C   0  0
    7.1505  -11.1984    0.0000 C   0  0
    6.4378   -9.9564    0.0000 C   0  0
    9.2968  -10.7733    0.0000 C   0  0
   10.0011   -9.5314    0.0000 C   0  0
   10.7262  -10.7650    0.0000 C   0  0
   10.7179   -9.9356    0.0000 C   0  0
  1  8  1  0
  3  1  1  0
  4  3  1  0
  5  2  1  0
  6  5  1  0
  7  5  1  0
  8  7  1  0
  9  6  1  0
 10  4  1  0
 11  4  1  0
 12  4  1  0
  9  1  1  0
 13 14  3  0
 14 20  1  0
 15  2  1  0
 16  2  1  0
 17 23  1  0
 18 16  1  0
 19 16  2  0
 20 22  2  0
 21 18  2  0
 22 19  1  0
 23 15  2  0
 24 15  1  0
 25 26  1  0
 26 24  2  0
 21 20  1  0
 25 17  2  0
M  END
> <COMPOUND_ID>
DNDI1720697

$$$$

  SciTegic03121405392D

 29 31  0  0  0  0            999 V2000
    8.5400   -7.0685    0.0000 N   0  0
    8.5715   -9.5408    0.0000 N   0  0
    8.5307   -6.2451    0.0000 C   0  0
    9.2603   -7.4796    0.0000 C   0  0
    7.8322   -7.4923    0.0000 C   0  0
    9.2681   -8.2973    0.0000 C   0  0
    7.8394   -8.3193    0.0000 C   0  0
    8.5586   -8.7153    0.0000 C   0  0
    7.8120   -5.8398    0.0000 C   0  0
    7.8047   -5.0127    0.0000 O   0  0
    9.2422   -5.8234    0.0000 C   0  0
    7.1025   -6.2578    0.0000 C   0  0
    9.2329   -5.0000    0.0000 C   0  0
    5.7126  -11.1994    0.0000 C   0  0
    6.4294  -10.7869    0.0000 C   0  0
    9.2883   -9.9492    0.0000 C   0  0
    7.8589   -9.9575    0.0000 C   0  0
   10.0010  -11.1828    0.0000 N   0  0
    6.4294   -9.9575    0.0000 C   0  0
    7.1421  -11.1994    0.0000 C   0  0
    7.1421   -9.5449    0.0000 C   0  0
    7.8589  -10.7869    0.0000 C   0  0
    5.0000  -10.7869    0.0000 F   0  0
    5.7126  -12.0246    0.0000 F   0  0
    5.5001  -10.4035    0.0000 F   0  0
    9.2883  -10.7744    0.0000 C   0  0
    9.9926   -9.5324    0.0000 C   0  0
   10.7178  -10.7660    0.0000 C   0  0
   10.7094   -9.9367    0.0000 C   0  0
  1  5  1  0
  3  1  1  0
  4  6  1  0
  5  7  1  0
  6  8  1  0
  7  8  1  0
  8  2  1  0
  9  3  1  0
 10  9  1  0
 11  3  1  0
 12  9  1  0
 13 11  1  0
  1  4  1  0
  2 17  1  0
 15 14  1  0
 16  2  1  0
 17 21  2  0
 18 26  1  0
 19 15  2  0
 20 15  1  0
 21 19  1  0
 22 20  2  0
 23 14  1  0
 24 14  1  0
 25 14  1  0
 26 16  2  0
 27 16  1  0
 28 29  1  0
 29 27  2  0
 17 22  1  0
 28 18  2  0
M  END
> <COMPOUND_ID>
DNDI1720698

$$$$

  SciTegic03121405392D

 33 36  0  0  0  0            999 V2000
    5.0014  -11.6035    0.0000 C   0  0
    5.0000  -12.4319    0.0000 C   0  0
    5.7139  -12.8451    0.0000 N   0  0
    6.4298  -12.4313    0.0000 C   0  0
    6.4264  -11.5992    0.0000 C   0  0
    5.7118  -11.1904    0.0000 C   0  0
    7.1380  -11.1832    0.0000 N   0  0
    7.8534  -11.5927    0.0000 C   0  0
    7.8531  -12.4155    0.0000 C   0  0
    8.5675  -12.8249    0.0000 C   0  0
    9.2803  -12.4089    0.0000 C   0  0
    9.2784  -11.5832    0.0000 C   0  0
    8.5633  -11.1733    0.0000 C   0  0
    7.1343  -10.3576    0.0000 C   0  0
    9.9963  -12.8173    0.0000 C   0  0
   10.7173  -13.2307    0.0000 N   0  0
    7.8474   -9.9470    0.0000 C   0  0
    7.8461   -9.1258    0.0000 C   0  0
    7.1329   -8.7116    0.0000 N   0  0
    6.4191   -9.1261    0.0000 C   0  0
    6.4184   -9.9548    0.0000 C   0  0
    7.1329   -7.8860    0.0000 C   0  0
    7.8477   -7.4778    0.0000 C   0  0
    7.8482   -6.6532    0.0000 C   0  0
    7.1340   -6.2394    0.0000 C   0  0
    6.4177   -6.6575    0.0000 C   0  0
    6.4214   -7.4805    0.0000 C   0  0
    7.1327   -5.4139    0.0000 C   0  0
    7.8456   -5.0000    0.0000 F   0  0
    6.4186   -5.0022    0.0000 F   0  0
    7.9300   -5.6277    0.0000 F   0  0
    8.5650   -7.8928    0.0000 C   0  0
    9.2772   -8.3077    0.0000 N   0  0
 15 16  3  0
 14 17  1  0
  7  8  1  0
  8  9  2  0
  4  5  1  0
  9 10  1  0
 14 21  1  0
 17 18  1  0
 18 19  1  0
 19 20  1  0
 20 21  1  0
  2  3  1  0
 19 22  1  0
 10 11  2  0
 22 23  2  0
  5  6  2  0
 23 24  1  0
 11 12  1  0
 24 25  2  0
  6  1  1  0
 25 26  1  0
 12 13  2  0
 26 27  2  0
 27 22  1  0
 13  8  1  0
 25 28  1  0
  1  2  2  0
 28 29  1  0
  7 14  1  0
 28 30  1  0
  5  7  1  0
 28 31  1  0
 11 15  1  0
 23 32  1  0
  3  4  2  0
 32 33  3  0
M  END
> <COMPOUND_ID>
DNDI1724342

$$$$

  SciTegic03121405392D

 33 36  0  0  0  0            999 V2000
    1.0938   14.0852    0.0000 C   0  0
    1.0938    3.7464    0.0000 N   0  0
    1.1066   -4.0048    0.0000 N   0  0
    1.0938   11.4973    0.0000 C   0  0
   -7.8598   -9.2070    0.0000 C   0  0
    1.0938    6.3343    0.0000 C   0  0
    3.3548   -5.2856    0.0000 C   0  0
    1.0938   -1.4166    0.0000 C   0  0
   -1.1284   -5.3116    0.0000 C   0  0
   -1.1544   -0.1490    0.0000 C   0  0
    3.3288   -0.1226    0.0000 C   0  0
    3.3288    2.4521    0.0000 C   0  0
   -1.1544    2.4521    0.0000 C   0  0
    5.5898   -9.1546    0.0000 N   0  0
    7.8120   -5.2464    0.0000 N   0  0
    7.8380   -7.8475    0.0000 C   0  0
   -1.1544   10.1902    0.0000 C   0  0
    3.3416   10.2034    0.0000 C   0  0
   -1.1416    7.6151    0.0000 C   0  0
    3.3416    7.6151    0.0000 C   0  0
    3.3288   15.3792    0.0000 F   0  0
   -1.1544   15.3792    0.0000 F   0  0
    3.5901   13.4187    0.0000 F   0  0
   -3.3766   -4.0177    0.0000 C   0  0
   -1.1284   -7.9127    0.0000 C   0  0
   -5.6116   -7.9127    0.0000 C   0  0
   -5.6116   -5.3116    0.0000 C   0  0
   -3.3766   -9.2070    0.0000 C   0  0
    5.5638   -3.9785    0.0000 C   0  0
    3.3548   -7.8735    0.0000 C   0  0
  -10.1048   -7.9072    0.0000 F   0  0
   -7.8631  -11.8012    0.0000 F   0  0
   -8.5281   -6.7004    0.0000 F   0  0
  2  6  1  0
  3  8  1  0
  4  1  1  0
  5 26  1  0
  6 19  1  0
  7  3  1  0
  8 10  1  0
  9  3  1  0
 10 13  1  0
 11 12  1  0
 12  2  1  0
 13  2  1  0
 14 30  1  0
 15 29  2  0
 16 15  1  0
 17  4  1  0
 18  4  2  0
 19 17  2  0
 20 18  1  0
 21  1  1  0
 22  1  1  0
 23  1  1  0
 24  9  2  0
 25  9  1  0
 26 27  2  0
 27 24  1  0
 28 25  2  0
 29  7  1  0
 30  7  2  0
 20  6  2  0
 11  8  1  0
 28 26  1  0
 16 14  2  0
  5 31  1  0
  5 32  1  0
  5 33  1  0
M  END
> <COMPOUND_ID>
DNDI1724343

$$$$

  SciTegic03121405392D

 33 36  0  0  0  0            999 V2000
    8.5676   -5.4126    0.0000 C   0  0
    5.7127  -12.8395    0.0000 C   0  0
    8.5676   -8.7093    0.0000 N   0  0
    8.5676   -6.2379    0.0000 C   0  0
    8.5676   -7.8841    0.0000 C   0  0
    7.8549   -7.4757    0.0000 C   0  0
    8.5717  -11.1807    0.0000 N   0  0
    6.4295  -12.4269    0.0000 C   0  0
    8.5676  -10.3555    0.0000 C   0  0
    7.8507   -6.6546    0.0000 N   0  0
    7.8590  -11.5975    0.0000 C   0  0
    9.2802   -9.9429    0.0000 C   0  0
    7.8507   -9.9513    0.0000 C   0  0
    7.8507   -9.1219    0.0000 C   0  0
    9.2802   -9.1219    0.0000 C   0  0
    9.2844   -6.6505    0.0000 C   0  0
    9.2802   -7.4757    0.0000 C   0  0
    9.2886  -11.5892    0.0000 C   0  0
   10.0012  -12.8228    0.0000 N   0  0
    6.4295  -11.5975    0.0000 C   0  0
    7.1422  -12.8395    0.0000 C   0  0
    9.2802   -5.0000    0.0000 F   0  0
    7.8507   -5.0000    0.0000 F   0  0
    9.3636   -5.6252    0.0000 F   0  0
    7.8590  -12.4269    0.0000 C   0  0
    7.1422  -11.1849    0.0000 C   0  0
    5.0000  -12.4269    0.0000 F   0  0
    5.7127  -13.6647    0.0000 F   0  0
    5.5001  -12.0435    0.0000 F   0  0
    9.2886  -12.4144    0.0000 C   0  0
   10.7181  -12.4061    0.0000 C   0  0
    9.9929  -11.1724    0.0000 C   0  0
   10.7098  -11.5767    0.0000 N   0  0
  2  8  1  0
  3  5  1  0
  4  1  1  0
  5  6  1  0
  6 10  2  0
  7  9  1  0
  8 20  2  0
  9 13  1  0
 10  4  1  0
 11  7  1  0
 12 15  1  0
 13 14  1  0
 14  3  1  0
 15  3  1  0
 16  4  2  0
 17 16  1  0
 18  7  1  0
 19 30  1  0
 20 26  1  0
 21 25  2  0
 22  1  1  0
 23  1  1  0
 24  1  1  0
 25 11  1  0
 26 11  2  0
 27  2  1  0
 28  2  1  0
 29  2  1  0
 30 18  2  0
 31 19  2  0
 32 18  1  0
 33 32  2  0
 17  5  2  0
 12  9  1  0
 21  8  1  0
 33 31  1  0
M  END
> <COMPOUND_ID>
DNDI1724344

$$$$

  SciTegic03121405392D

 29 31  0  0  0  0            999 V2000
    5.7126  -11.1921    0.0000 C   0  0
    8.5711   -9.5337    0.0000 N   0  0
    8.5669   -7.0627    0.0000 N   0  0
    6.4293  -10.7796    0.0000 C   0  0
    8.5669   -8.7086    0.0000 C   0  0
    7.8586   -9.9504    0.0000 C   0  0
    8.5669   -6.2376    0.0000 C   0  0
    7.8502   -8.3044    0.0000 C   0  0
    9.2795   -8.2961    0.0000 C   0  0
    9.2795   -5.8251    0.0000 C   0  0
    9.2878   -9.9420    0.0000 C   0  0
   10.0004  -11.1755    0.0000 N   0  0
    7.1418  -11.1921    0.0000 C   0  0
    6.4293   -9.9504    0.0000 C   0  0
    7.8586  -10.7796    0.0000 C   0  0
    7.1418   -9.5378    0.0000 C   0  0
    5.7126  -12.0172    0.0000 F   0  0
    5.5000  -10.3962    0.0000 F   0  0
    5.0000  -10.7796    0.0000 F   0  0
    7.8502   -7.4752    0.0000 C   0  0
    9.2795   -7.4752    0.0000 C   0  0
    9.9962   -6.2376    0.0000 C   0  0
    9.2795   -5.0000    0.0000 O   0  0
    9.2878  -10.7671    0.0000 C   0  0
   10.7171  -10.7588    0.0000 C   0  0
    9.9921   -9.5253    0.0000 C   0  0
    9.9962   -7.0627    0.0000 C   0  0
   10.7088   -5.8251    0.0000 C   0  0
   10.7088   -9.9295    0.0000 C   0  0
  2  6  1  0
  3 20  1  0
  4  1  1  0
  5  2  1  0
  6 16  2  0
  7  3  1  0
  8  5  1  0
  9  5  1  0
 10  7  1  0
 11  2  1  0
 12 24  1  0
 13  4  1  0
 14  4  2  0
 15 13  2  0
 16 14  1  0
 17  1  1  0
 18  1  1  0
 19  1  1  0
 20  8  1  0
 21  9  1  0
 22 10  1  0
 23 10  1  0
 24 11  2  0
 25 12  2  0
 26 11  1  0
 27 22  1  0
 28 22  1  0
 29 26  2  0
  6 15  1  0
  3 21  1  0
 29 25  1  0
M  END
> <COMPOUND_ID>
DNDI1724945

$$$$

  SciTegic03121405392D

 28 30  0  0  0  0            999 V2000
    9.8698  -11.6868    0.0000 C   0  0
    7.1016  -10.0527    0.0000 N   0  0
    7.1057   -7.6381    0.0000 N   0  0
    9.1747  -11.2844    0.0000 C   0  0
    7.1057   -9.2479    0.0000 C   0  0
    7.7926  -10.4633    0.0000 C   0  0
    7.8008   -8.8536    0.0000 C   0  0
    6.4146   -8.8536    0.0000 C   0  0
    6.3983  -10.4511    0.0000 C   0  0
    5.6910  -11.6462    0.0000 N   0  0
    6.4146   -5.8048    0.0000 C   0  0
    7.1138   -6.2073    0.0000 C   0  0
    9.1829  -10.4795    0.0000 C   0  0
    8.4715  -11.6746    0.0000 C   0  0
    8.4877  -10.0649    0.0000 C   0  0
    7.7804  -11.2681    0.0000 C   0  0
   10.5649  -11.2844    0.0000 F   0  0
   10.5649  -12.0893    0.0000 F   0  0
    9.8658  -12.4917    0.0000 F   0  0
    6.4146   -8.0487    0.0000 C   0  0
    7.8008   -8.0487    0.0000 C   0  0
    6.4105   -5.0000    0.0000 F   0  0
    6.3943  -11.2519    0.0000 C   0  0
    5.0000  -11.2356    0.0000 C   0  0
    6.4065   -6.6097    0.0000 C   0  0
    5.6097   -5.8048    0.0000 C   0  0
    5.7073  -10.0365    0.0000 C   0  0
    5.0081  -10.4308    0.0000 C   0  0
  2  6  1  0
  3 21  1  0
  4  1  1  0
  5  2  1  0
  6 15  1  0
  7  5  1  0
  8  5  1  0
  9  2  1  0
 10 23  2  0
 11 12  1  0
 12  3  1  0
 13  4  1  0
 14  4  2  0
 15 13  2  0
 16 14  1  0
 17  1  1  0
 18  1  1  0
 19  1  1  0
 20  8  1  0
 21  7  1  0
 22 11  1  0
 23  9  1  0
 24 10  1  0
 25 11  1  0
 26 11  1  0
 27  9  2  0
 28 27  1  0
 16  6  2  0
 24 28  2  0
  3 20  1  0
M  END
> <COMPOUND_ID>
DNDI1729593

$$$$

  SciTegic03121405392D

 34 37  0  0  0  0            999 V2000
    6.4453   -6.2413    0.0000 C   0  0
    9.9899  -11.6185    0.0000 C   0  0
    7.1576   -7.4783    0.0000 N   0  0
    7.1576   -6.6536    0.0000 C   0  0
    7.1492   -9.9483    0.0000 N   0  0
    9.2818  -11.1978    0.0000 C   0  0
    7.1534   -9.1236    0.0000 C   0  0
    7.8615  -10.3648    0.0000 C   0  0
    6.4411   -8.7070    0.0000 C   0  0
    7.8698   -8.7112    0.0000 C   0  0
    6.4411   -7.8865    0.0000 C   0  0
    7.8740   -7.8865    0.0000 C   0  0
    6.4328  -10.3565    0.0000 C   0  0
    5.7122  -11.5893    0.0000 N   0  0
    9.2860  -10.3731    0.0000 C   0  0
    8.5612  -11.6018    0.0000 C   0  0
    8.5737   -9.9524    0.0000 C   0  0
    7.8531  -11.1895    0.0000 C   0  0
    7.8740   -6.2413    0.0000 C   0  0
    6.4453   -5.4166    0.0000 F   0  0
    5.7289   -6.6536    0.0000 F   0  0
    5.7289   -5.8248    0.0000 F   0  0
    9.9857  -12.4432    0.0000 F   0  0
   10.7104  -11.2103    0.0000 F   0  0
   10.7021  -12.0308    0.0000 F   0  0
    6.4328  -11.1812    0.0000 C   0  0
    5.0000  -11.1687    0.0000 C   0  0
    5.7206   -9.9399    0.0000 C   0  0
    8.5862   -6.6536    0.0000 C   0  0
    7.8740   -5.4124    0.0000 C   0  0
    5.0083  -10.3440    0.0000 C   0  0
    9.3026   -6.2413    0.0000 C   0  0
    8.5862   -5.0000    0.0000 C   0  0
    9.3026   -5.4124    0.0000 C   0  0
  2  6  1  0
  3  4  1  0
  4  1  1  0
  5  7  1  0
  6 15  1  0
  7 10  1  0
  8  5  1  0
  9 11  1  0
 10 12  1  0
 11  3  1  0
 12  3  1  0
 13  5  1  0
 14 26  2  0
 15 17  2  0
 16 18  1  0
 17  8  1  0
 18  8  2  0
 19  4  1  0
 20  1  1  0
 21  1  1  0
 22  1  1  0
 23  2  1  0
 24  2  1  0
 25  2  1  0
 26 13  1  0
 27 14  1  0
 28 13  2  0
 29 19  1  0
 30 19  2  0
 31 28  1  0
 32 29  2  0
 33 30  1  0
 34 33  2  0
  7  9  1  0
 34 32  1  0
  6 16  2  0
 27 31  2  0
M  END
> <COMPOUND_ID>
DNDI1729594

$$$$

  SciTegic03121405392D

 33 36  0  0  0  0            999 V2000
    8.5676   -5.4126    0.0000 C   0  0
    5.7127  -12.8395    0.0000 C   0  0
    8.5676   -8.7093    0.0000 N   0  0
    8.5676   -6.2379    0.0000 C   0  0
    8.5676   -7.8841    0.0000 C   0  0
    7.8549   -7.4757    0.0000 N   0  0
    8.5717  -11.1807    0.0000 N   0  0
    6.4295  -12.4269    0.0000 C   0  0
    8.5676  -10.3555    0.0000 C   0  0
    7.8507   -6.6546    0.0000 C   0  0
    7.8590  -11.5975    0.0000 C   0  0
    9.2802   -9.9429    0.0000 C   0  0
    7.8507   -9.9513    0.0000 C   0  0
    7.8507   -9.1219    0.0000 C   0  0
    9.2802   -9.1219    0.0000 C   0  0
    9.2844   -6.6505    0.0000 C   0  0
    9.2802   -7.4757    0.0000 C   0  0
    9.2886  -11.5892    0.0000 C   0  0
   10.0012  -12.8228    0.0000 N   0  0
    6.4295  -11.5975    0.0000 C   0  0
    7.1422  -12.8395    0.0000 C   0  0
    9.2802   -5.0000    0.0000 F   0  0
    7.8507   -5.0000    0.0000 F   0  0
    9.3636   -5.6252    0.0000 F   0  0
    7.8590  -12.4269    0.0000 C   0  0
    7.1422  -11.1849    0.0000 C   0  0
    5.0000  -12.4269    0.0000 F   0  0
    5.7127  -13.6647    0.0000 F   0  0
    5.5001  -12.0435    0.0000 F   0  0
    9.2886  -12.4144    0.0000 C   0  0
   10.7181  -12.4061    0.0000 C   0  0
    9.9929  -11.1724    0.0000 C   0  0
   10.7098  -11.5767    0.0000 N   0  0
  2  8  1  0
  3  5  1  0
  4  1  1  0
  5  6  1  0
  6 10  2  0
  7  9  1  0
  8 20  2  0
  9 13  1  0
 10  4  1  0
 11  7  1  0
 12 15  1  0
 13 14  1  0
 14  3  1  0
 15  3  1  0
 16  4  2  0
 17 16  1  0
 18  7  1  0
 19 30  1  0
 20 26  1  0
 21 25  2  0
 22  1  1  0
 23  1  1  0
 24  1  1  0
 25 11  1  0
 26 11  2  0
 27  2  1  0
 28  2  1  0
 29  2  1  0
 30 18  2  0
 31 19  2  0
 32 18  1  0
 33 32  2  0
 17  5  2  0
 12  9  1  0
 21  8  1  0
 33 31  1  0
M  END
> <COMPOUND_ID>
DNDI1734530

$$$$
