
  SciTegic10251309232D

 31 34  0  0  0  0            999 V2000
    5.7245   -7.8835    0.0000 C   0  0
    5.7233   -8.7109    0.0000 C   0  0
    6.4381   -9.1237    0.0000 C   0  0
    7.1546   -8.7104    0.0000 C   0  0
    7.1517   -7.8799    0.0000 C   0  0
    6.4363   -7.4707    0.0000 C   0  0
    6.4338   -6.6457    0.0000 C   0  0
    6.4379   -9.9487    0.0000 N   0  0
    7.8697   -9.1217    0.0000 N   0  0
    8.5835   -8.7081    0.0000 C   0  0
    9.2986   -9.1195    0.0000 C   0  0
    8.5822   -7.8831    0.0000 O   0  0
    5.7754  -10.4335    0.0000 C   0  0
    6.0302  -11.2181    0.0000 C   0  0
    6.8552  -11.2183    0.0000 N   0  0
    7.1102  -10.4338    0.0000 C   0  0
    7.1471   -6.2311    0.0000 C   0  0
    5.7182   -6.2354    0.0000 N   0  0
    5.7157   -5.4104    0.0000 O   0  0
    5.0000   -5.0000    0.0000 C   0  0
    9.2952   -9.9429    0.0000 C   0  0
   10.0095  -10.3542    0.0000 C   0  0
   10.7243   -9.9406    0.0000 C   0  0
   10.7203   -9.1113    0.0000 C   0  0
   10.0055   -8.7037    0.0000 C   0  0
   11.4399  -10.3510    0.0000 C   0  0
   11.4380  -11.1763    0.0000 C   0  0
   12.1528  -11.5866    0.0000 C   0  0
   12.8670  -11.1720    0.0000 C   0  0
   12.8620  -10.3427    0.0000 C   0  0
   12.1466   -9.9361    0.0000 N   0  0
  1  2  2  0
  2  3  1  0
  3  4  2  0
  4  5  1  0
  5  6  2  0
  6  1  1  0
  6  7  1  0
  3  8  1  0
  4  9  1  0
  9 10  1  0
 10 11  1  0
 10 12  2  0
  8 13  1  0
 13 14  2  0
 14 15  1  0
 15 16  2  0
 16  8  1  0
  7 17  1  0
  7 18  2  0
 18 19  1  0
 19 20  1  0
 11 21  2  0
 21 22  1  0
 22 23  2  0
 23 24  1  0
 24 25  2  0
 25 11  1  0
 23 26  1  0
 26 27  2  0
 27 28  1  0
 28 29  2  0
 29 30  1  0
 30 31  2  0
 31 26  1  0
M  END
> <COMPOUND_ID>
DNDI100663

$$$$

  SciTegic10251309232D

 29 32  0  0  0  0            999 V2000
    5.1194   -7.0659    0.0000 C   0  0
    5.1182   -7.8930    0.0000 C   0  0
    5.8328   -8.3057    0.0000 C   0  0
    6.5489   -7.8925    0.0000 C   0  0
    6.5461   -7.0623    0.0000 C   0  0
    5.8310   -6.6533    0.0000 C   0  0
    5.8285   -5.8286    0.0000 S   0  0
    5.8326   -9.1304    0.0000 N   0  0
    7.2638   -8.3037    0.0000 N   0  0
    7.9774   -7.8903    0.0000 C   0  0
    8.6922   -8.3015    0.0000 C   0  0
    7.9761   -7.0656    0.0000 O   0  0
    5.1703   -9.6150    0.0000 C   0  0
    5.4250  -10.3994    0.0000 C   0  0
    6.2497  -10.3996    0.0000 N   0  0
    6.5046   -9.6153    0.0000 C   0  0
    5.0000   -5.8206    0.0000 O   0  0
    6.6494   -5.8247    0.0000 O   0  0
    5.8205   -5.0000    0.0000 C   0  0
    8.7824   -9.1191    0.0000 C   0  0
    9.5893   -9.2893    0.0000 N   0  0
   10.0006   -8.5744    0.0000 C   0  0
    9.4477   -7.9625    0.0000 S   0  0
   10.8206   -8.4869    0.0000 C   0  0
   11.3030   -9.1564    0.0000 C   0  0
   12.1223   -9.0693    0.0000 C   0  0
   12.4573   -8.3147    0.0000 C   0  0
   11.9668   -7.6464    0.0000 C   0  0
   11.1492   -7.7369    0.0000 C   0  0
  1  2  2  0
  2  3  1  0
  3  4  2  0
  4  5  1  0
  5  6  2  0
  6  1  1  0
  6  7  1  0
  3  8  1  0
  4  9  1  0
  9 10  1  0
 10 11  1  0
 10 12  2  0
  8 13  1  0
 13 14  2  0
 14 15  1  0
 15 16  2  0
 16  8  1  0
  7 17  2  0
  7 18  2  0
  7 19  1  0
 11 20  2  0
 20 21  1  0
 21 22  2  0
 22 23  1  0
 23 11  1  0
 22 24  1  0
 24 25  2  0
 25 26  1  0
 26 27  2  0
 27 28  1  0
 28 29  2  0
 29 24  1  0
M  END
> <COMPOUND_ID>
DNDI100664

$$$$

  SciTegic10251309232D

 22 24  0  0  0  0            999 V2000
    7.8109  -10.3623    0.0000 O   0  0
    6.3818  -10.3623    0.0000 N   0  0
    6.3348  -12.9097    0.0000 N   0  0
    5.2549  -13.6943    0.0000 N   0  0
    5.6675  -11.5998    0.0000 C   0  0
    6.3818  -11.1873    0.0000 C   0  0
    5.6675  -12.4248    0.0000 C   0  0
    7.0964   -9.1248    0.0000 C   0  0
    7.0964   -7.4749    0.0000 C   0  0
    7.0964   -9.9498    0.0000 C   0  0
    7.0964   -6.6499    0.0000 C   0  0
    7.8109   -8.7124    0.0000 C   0  0
    6.3818   -8.7124    0.0000 C   0  0
    7.8109   -7.8874    0.0000 C   0  0
    6.3818   -7.8874    0.0000 C   0  0
    5.0000  -12.9097    0.0000 C   0  0
    6.3818   -6.2375    0.0000 C   0  0
    7.8109   -6.2375    0.0000 C   0  0
    6.0799  -13.6943    0.0000 C   0  0
    6.3818   -5.4125    0.0000 C   0  0
    7.8109   -5.4125    0.0000 C   0  0
    7.0964   -5.0000    0.0000 C   0  0
  1 10  2  0
  2  6  1  0
  2 10  1  0
  3  7  1  0
  3 19  1  0
  4 16  1  0
  4 19  2  0
  5  6  1  0
  5  7  1  0
  7 16  2  0
  8 10  1  0
  8 12  2  0
  8 13  1  0
  9 11  1  0
  9 14  2  0
  9 15  1  0
 11 17  2  0
 11 18  1  0
 12 14  1  0
 13 15  2  0
 17 20  1  0
 18 21  2  0
 20 22  2  0
 21 22  1  0
M  END
> <COMPOUND_ID>
DNDI1441803

$$$$

  SciTegic10251309232D

 32 34  0  0  0  0            999 V2000
   11.4302  -10.7750    0.0000 Cl  0  0
   11.4302   -7.4750    0.0000 S   0  0
    9.2869   -8.7125    0.0000 O   0  0
   10.6052   -7.4750    0.0000 O   0  0
   12.2552   -7.4750    0.0000 O   0  0
    5.7145  -10.7750    0.0000 N   0  0
    7.8579   -9.5375    0.0000 N   0  0
   10.0013   -9.9500    0.0000 N   0  0
   11.4302   -6.6500    0.0000 N   0  0
    7.1434   -9.9500    0.0000 C   0  0
    7.1434  -10.7750    0.0000 C   0  0
    6.4290   -9.5375    0.0000 C   0  0
    6.4290  -11.1875    0.0000 C   0  0
    5.7145   -9.9500    0.0000 C   0  0
    8.5724   -9.9500    0.0000 C   0  0
    5.0000  -11.1875    0.0000 C   0  0
    7.8579   -8.7125    0.0000 C   0  0
    9.2869   -9.5375    0.0000 C   0  0
   10.7157   -9.5375    0.0000 C   0  0
   11.4302   -8.3000    0.0000 C   0  0
   10.7157   -8.7125    0.0000 C   0  0
   11.4302   -9.9500    0.0000 C   0  0
   10.7157   -6.2375    0.0000 C   0  0
   12.1447   -8.7125    0.0000 C   0  0
   12.1447   -6.2375    0.0000 C   0  0
   12.1447   -9.5375    0.0000 C   0  0
   10.7157   -5.4125    0.0000 C   0  0
   12.1447   -5.4125    0.0000 C   0  0
   12.8592   -6.6500    0.0000 C   0  0
   12.8592   -5.0000    0.0000 C   0  0
   13.5736   -6.2375    0.0000 C   0  0
   13.5736   -5.4125    0.0000 C   0  0
  1 22  1  0
  2  4  2  0
  2  5  2  0
  2  9  1  0
  2 20  1  0
  3 18  2  0
  6 13  1  0
  6 14  1  0
  6 16  1  0
  7 10  1  0
  7 15  1  0
  7 17  1  0
  8 18  1  0
  8 19  1  0
  9 23  1  0
  9 25  1  0
 10 11  1  0
 10 12  1  0
 11 13  1  0
 12 14  1  0
 15 18  1  0
 19 21  1  0
 19 22  2  0
 20 21  2  0
 20 24  1  0
 22 26  1  0
 23 27  1  0
 24 26  2  0
 25 28  2  0
 25 29  1  0
 28 30  1  0
 29 31  2  0
 30 32  2  0
 31 32  1  0
M  END
> <COMPOUND_ID>
DNDI1442027

$$$$

  SciTegic10251309232D

 22 23  0  0  0  0            999 V2000
    6.3926    0.8911    0.0000 Cl  0  0
    3.6321   -1.3486    0.0000 Br  0  0
   -3.9122    1.4966    0.0000 O   0  0
   -6.5141    2.6924    0.0000 O   0  0
   -9.1121    1.4882    0.0000 N   0  0
  -10.7170    3.2811    0.0000 N   0  0
   -6.5121    1.4924    0.0000 C   0  0
   -7.8109    0.7403    0.0000 C   0  0
   -5.2109    0.7445    0.0000 C   0  0
   -2.6111    0.7486    0.0000 C   0  0
    0.0000    0.7486    0.0000 C   0  0
    0.0000   -0.7486    0.0000 C   0  0
   -1.2964    1.4973    0.0000 C   0  0
  -10.4636    0.8673    0.0000 C   0  0
   -2.6111   -0.7486    0.0000 C   0  0
   -1.2964   -1.4973    0.0000 C   0  0
   -9.2498    2.9691    0.0000 C   0  0
    1.2964    1.4973    0.0000 C   0  0
    1.2964   -1.4973    0.0000 C   0  0
  -11.4671    1.9822    0.0000 C   0  0
    2.5929    0.7486    0.0000 C   0  0
    2.5929   -0.7486    0.0000 C   0  0
  2 22  1  0
  3  9  1  0
  3 10  1  0
  4  7  1  0
  5  8  1  0
  5 14  1  0
  5 17  1  0
  6 17  2  0
  6 20  1  0
  7  8  1  0
  7  9  1  0
 10 13  2  0
 10 15  1  0
 11 12  2  0
 11 13  1  0
 11 18  1  0
 12 16  1  0
 12 19  1  0
 14 20  2  0
 15 16  2  0
 18 21  2  0
 19 22  2  0
 21 22  1  0
M  END
> <COMPOUND_ID>
DNDI1442185-24

$$$$

  SciTegic10251309232D

 30 34  0  0  0  0            999 V2000
    9.3000   -8.6958    0.0000 N   0  0
    9.2916   -7.8708    0.0000 C   0  0
   10.0124   -9.1083    0.0000 C   0  0
   10.0083   -7.4583    0.0000 N   0  0
   10.7208   -8.6958    0.0000 C   0  0
   10.7249   -7.8708    0.0000 C   0  0
    8.5833   -9.1083    0.0000 C   0  0
    8.5750   -7.4624    0.0000 C   0  0
   10.0124   -9.9333    0.0000 O   0  0
    7.1458   -6.6416    0.0000 C   0  0
    9.3041  -11.1749    0.0000 N   0  0
    8.5875   -9.9333    0.0000 C   0  0
    7.8666   -7.8749    0.0000 C   0  0
    8.5750   -6.6333    0.0000 C   0  0
    7.8625   -6.2250    0.0000 C   0  0
    7.1500   -7.4708    0.0000 C   0  0
    6.4292   -6.2291    0.0000 C   0  0
   11.4333   -9.1124    0.0000 C   0  0
    9.3041  -10.3457    0.0000 C   0  0
   11.4374   -7.4624    0.0000 C   0  0
    8.5875  -11.5874    0.0000 C   0  0
    7.8750  -10.3457    0.0000 C   0  0
    5.7208   -6.6500    0.0000 C   0  0
    6.4292   -5.4083    0.0000 C   0  0
   12.1458   -8.6999    0.0000 C   0  0
    7.8750  -11.1749    0.0000 C   0  0
   12.1499   -7.8749    0.0000 C   0  0
    5.7125   -5.0000    0.0000 C   0  0
    5.0042   -6.2416    0.0000 C   0  0
    5.0000   -5.4125    0.0000 C   0  0
  2  1  1  0
  3  1  1  0
  4  2  2  0
  5  3  1  0
  6  4  1  0
  7  1  1  0
  8  2  1  0
  9  3  2  0
 10 16  1  0
 11 19  1  0
 12  7  1  0
 13  8  1  0
 14  8  2  0
 15 14  1  0
 16 13  2  0
 17 10  1  0
 18  5  1  0
 19 12  2  0
 20  6  1  0
 21 26  1  0
 22 12  1  0
 23 17  1  0
 24 17  2  0
 25 18  2  0
 26 22  2  0
 27 20  2  0
 28 24  1  0
 29 23  2  0
 30 29  1  0
  5  6  2  0
 10 15  2  0
 27 25  1  0
 11 21  2  0
 30 28  2  0
M  END
> <COMPOUND_ID>
DNDI1797946

$$$$

  SciTegic10251309232D

 31 34  0  0  0  0            999 V2000
    7.7286   -8.7242    0.0000 C   0  0
    8.4452   -9.9615    0.0000 C   0  0
    6.2997   -8.7242    0.0000 N   0  0
    7.7286   -9.5491    0.0000 N   0  0
    7.0163   -8.3118    0.0000 C   0  0
    8.4452  -10.7863    0.0000 C   0  0
    8.4452  -12.4319    0.0000 C   0  0
    7.7286  -12.0194    0.0000 N   0  0
    9.1617  -12.0153    0.0000 N   0  0
    5.0000   -9.0034    0.0000 N   0  0
    9.1534   -7.0662    0.0000 C   0  0
    8.4452   -7.4828    0.0000 C   0  0
    8.4452   -8.3118    0.0000 C   0  0
    5.5499   -8.3910    0.0000 C   0  0
    7.0163   -7.4870    0.0000 C   0  0
    7.7286  -11.1946    0.0000 C   0  0
    9.1575  -11.1946    0.0000 C   0  0
    6.2164   -9.5491    0.0000 C   0  0
    5.4083   -9.7199    0.0000 C   0  0
    9.1575   -9.5491    0.0000 O   0  0
    7.7286   -7.0704    0.0000 C   0  0
    9.9532   -7.2787    0.0000 O   0  0
    8.4452  -13.2567    0.0000 C   0  0
    9.1534   -6.2414    0.0000 O   0  0
    7.7286  -13.6649    0.0000 C   0  0
    9.1575  -13.6608    0.0000 C   0  0
    9.8657   -5.8248    0.0000 C   0  0
    9.8615   -5.0000    0.0000 C   0  0
    9.1617  -14.4856    0.0000 C   0  0
    7.7286  -14.4898    0.0000 C   0  0
    8.4452  -14.9022    0.0000 C   0  0
  2  4  1  0
  3  5  1  0
  4  1  1  0
  5  1  1  0
  6  2  1  0
  7  9  1  0
  8 16  1  0
  9 17  2  0
 10 14  2  0
 11 12  1  0
 12 13  1  0
 13  1  2  0
 14  3  1  0
 15  5  2  0
 16  6  2  0
 17  6  1  0
 18  3  1  0
 19 18  2  0
 20  2  2  0
 21 15  1  0
 22 11  2  0
 23  7  1  0
 24 11  1  0
 25 23  2  0
 26 23  1  0
 27 24  1  0
 28 27  1  0
 29 26  2  0
 30 25  1  0
 31 29  1  0
 21 12  2  0
 19 10  1  0
  7  8  2  0
 31 30  2  0
M  END
> <COMPOUND_ID>
DNDI1808267

$$$$

  SciTegic10251309232D

 33 34  0  0  0  0            999 V2000
   10.2969   -0.0075    0.0000 Cl  0  0
    2.5988   -1.5004    0.0000 S   0  0
    3.8990   -0.7508    0.0000 N   0  0
    1.2990   -0.7500    0.0000 C   0  0
    1.2990    0.7500    0.0000 C   0  0
   -3.8990    0.7455    0.0000 C   0  0
   -2.6003    1.4977    0.0000 N   0  0
   -1.2990    0.7500    0.0000 C   0  0
    0.0000    1.5000    0.0000 C   0  0
    2.5984   -2.7004    0.0000 O   0  0
    3.6377   -2.1009    0.0000 O   0  0
   -6.4990    0.7409    0.0000 N   0  0
  -10.3985    2.9886    0.0000 N   0  0
   -5.2003    1.4932    0.0000 C   0  0
   -7.8003    1.4887    0.0000 C   0  0
   -9.0994    0.7387    0.0000 C   0  0
   -7.8004    2.9887    0.0000 C   0  0
    5.1988   -1.5012    0.0000 C   0  0
    0.0000   -1.5000    0.0000 C   0  0
   -3.8969   -0.4545    0.0000 O   0  0
   -1.2990   -0.7500    0.0000 C   0  0
   -9.0995    3.7387    0.0000 C   0  0
  -10.3984    1.4886    0.0000 C   0  0
    0.0000    2.7000    0.0000 Cl  0  0
    3.9026    0.7500    0.0000 C   0  0
  -11.4377    3.5886    0.0000 C   0  0
   -6.4969   -0.4591    0.0000 C   0  0
    6.4994   -0.7539    0.0000 C   0  0
    5.1958   -3.0013    0.0000 C   0  0
    4.9429    1.3482    0.0000 C   0  0
    7.7969   -1.5066    0.0000 C   0  0
    6.4933   -3.7539    0.0000 C   0  0
    7.7939   -3.0066    0.0000 C   0  0
  3  2  1  0
  4  2  1  0
  5  4  2  0
  6  7  1  0
  7  8  1  0
  8  9  2  0
  9  5  1  0
 10  2  2  0
 11  2  2  0
 12 14  1  0
 13 22  1  0
 14  6  1  0
 15 12  1  0
 16 15  1  0
 17 15  1  0
 18  3  1  0
 19  4  1  0
 20  6  2  0
 21 19  2  0
 22 17  1  0
 23 16  1  0
 24  9  1  0
 25  3  1  0
 26 13  1  0
 27 12  1  0
 28 18  1  0
 29 18  2  0
 30 25  1  0
 31 28  2  0
 32 29  1  0
 33 32  2  0
  8 21  1  0
 31 33  1  0
 13 23  1  0
M  END
> <COMPOUND_ID>
DNDI1809576-24

$$$$

  SciTegic10251309232D

 32 35  0  0  0  0            999 V2000
   10.7474   -7.4858    0.0000 S   0  0
   10.7474   -6.6600    0.0000 N   0  0
   10.7391   -8.3074    0.0000 C   0  0
    8.5827   -9.5211    0.0000 C   0  0
    9.2918   -9.9424    0.0000 N   0  0
   10.0133   -9.5337    0.0000 C   0  0
   10.0217   -8.7120    0.0000 C   0  0
    7.8612   -9.9257    0.0000 C   0  0
   11.5732   -7.4983    0.0000 O   0  0
    9.9216   -7.4983    0.0000 O   0  0
    7.1521   -9.5045    0.0000 C   0  0
    6.4389   -9.9132    0.0000 C   0  0
   10.7224   -9.9591    0.0000 C   0  0
    8.5911   -8.6953    0.0000 O   0  0
    6.4264  -10.7348    0.0000 C   0  0
    5.0000  -10.7182    0.0000 N   0  0
   11.4606   -6.2470    0.0000 C   0  0
   11.4523   -8.7203    0.0000 C   0  0
    7.8570  -10.7474    0.0000 C   0  0
   11.4439   -9.5503    0.0000 C   0  0
    7.1396  -11.1561    0.0000 C   0  0
   10.7140  -10.7849    0.0000 Cl  0  0
   10.0342   -6.2470    0.0000 C   0  0
    5.7090  -11.1394    0.0000 C   0  0
    5.0125   -9.8923    0.0000 C   0  0
    5.7341   -9.4919    0.0000 C   0  0
   11.4606   -5.4212    0.0000 C   0  0
   12.1738   -6.6516    0.0000 C   0  0
   10.0300   -5.4212    0.0000 C   0  0
   12.1738   -5.0000    0.0000 C   0  0
   12.8870   -6.2470    0.0000 C   0  0
   12.8870   -5.4212    0.0000 C   0  0
  2  1  1  0
  3  1  1  0
  4  5  1  0
  5  6  1  0
  6  7  2  0
  7  3  1  0
  8  4  1  0
  9  1  2  0
 10  1  2  0
 11  8  2  0
 12 11  1  0
 13  6  1  0
 14  4  2  0
 15 21  1  0
 16 24  1  0
 17  2  1  0
 18  3  2  0
 19  8  1  0
 20 18  1  0
 21 19  2  0
 22 13  1  0
 23  2  1  0
 24 15  1  0
 25 26  1  0
 26 12  1  0
 27 17  1  0
 28 17  2  0
 29 23  1  0
 30 27  2  0
 31 28  1  0
 32 31  2  0
 20 13  2  0
 30 32  1  0
 12 15  2  0
 16 25  1  0
M  END
> <COMPOUND_ID>
DNDI1845888

$$$$

  SciTegic10251309232D

 24 25  0  0  0  0            999 V2000
    9.9119   -7.4705    0.0000 C   0  0
    9.9106   -8.2946    0.0000 C   0  0
    9.1893   -7.0554    0.0000 O   0  0
    8.4763   -7.4727    0.0000 C   0  0
    7.7579   -7.0659    0.0000 C   0  0
    7.0449   -7.4791    0.0000 C   0  0
    6.3306   -7.0640    0.0000 N   0  0
    6.1548   -6.2593    0.0000 C   0  0
    5.3402   -6.1725    0.0000 C   0  0
    5.0000   -6.9201    0.0000 N   0  0
    5.6149   -7.4774    0.0000 C   0  0
    7.7508   -6.2359    0.0000 O   0  0
   10.6245   -7.0567    0.0000 C   0  0
   11.3394   -7.4700    0.0000 C   0  0
   12.0479   -8.7042    0.0000 C   0  0
   12.7649   -8.2933    0.0000 C   0  0
   12.7647   -7.4685    0.0000 C   0  0
   12.0475   -7.0587    0.0000 C   0  0
   11.3393   -8.2940    0.0000 C   0  0
   10.6257   -8.7041    0.0000 C   0  0
   13.4842   -8.7139    0.0000 Br  0  0
    8.4618   -5.8240    0.0000 C   0  0
    8.4605   -5.0000    0.0000 C   0  0
    6.2705   -9.4892    0.0000 *   0  0
  5 12  1  0
  5  6  1  0
  1 13  1  0
 14 13  2  0
 20 19  2  0
  1  3  1  0
  6  7  1  0
  7  8  1  0
  3  4  1  0
 14 18  1  0
 19 15  1  0
 15 16  2  0
 16 17  1  0
 17 18  2  0
  1  2  2  0
 14 19  1  0
  4  5  1  0
  2 20  1  0
  8  9  2  0
 16 21  1  0
  9 10  1  0
 12 22  1  0
 10 11  2  0
 22 23  1  0
 11  7  1  0
A   24
HCOOH
M  END
> <COMPOUND_ID>
DNDI1858389

$$$$

  SciTegic10251309232D

 34 37  0  0  0  0            999 V2000
    9.1588   -6.6668    0.0000 S   0  0
    7.7295   -8.3170    0.0000 C   0  0
    8.4462   -7.0794    0.0000 C   0  0
    8.4379   -9.5588    0.0000 C   0  0
    6.3043   -8.3129    0.0000 N   0  0
    7.7253   -9.1421    0.0000 N   0  0
    7.0211   -7.9045    0.0000 C   0  0
    8.4379  -10.3839    0.0000 C   0  0
    8.4421   -7.9087    0.0000 C   0  0
    8.4296  -12.0300    0.0000 C   0  0
    7.7170  -11.6133    0.0000 N   0  0
    9.1463  -11.6174    0.0000 N   0  0
    5.0000   -8.5921    0.0000 N   0  0
    9.8714   -6.2460    0.0000 N   0  0
    5.5501   -7.9753    0.0000 C   0  0
    8.6588   -6.0084    0.0000 O   0  0
    9.6464   -7.3377    0.0000 O   0  0
    7.0169   -7.0794    0.0000 C   0  0
    7.7212  -10.7882    0.0000 C   0  0
    9.1463  -10.7923    0.0000 C   0  0
    6.2168   -9.1338    0.0000 C   0  0
    7.7253   -6.6668    0.0000 C   0  0
    5.4084   -9.3046    0.0000 C   0  0
    9.1547   -9.1463    0.0000 O   0  0
    8.4296  -12.8551    0.0000 C   0  0
   10.5882   -6.6502    0.0000 C   0  0
    9.8631   -5.4209    0.0000 C   0  0
    7.7128  -13.2635    0.0000 C   0  0
    9.1422  -13.2635    0.0000 C   0  0
   10.5715   -5.0000    0.0000 C   0  0
   11.3007   -6.2293    0.0000 C   0  0
    9.1422  -14.0886    0.0000 C   0  0
    7.7087  -14.0886    0.0000 C   0  0
    8.4254  -14.5011    0.0000 C   0  0
  2  9  2  0
  3  1  1  0
  4  6  1  0
  5  7  1  0
  6  2  1  0
  7 18  2  0
  8  4  1  0
  9  3  1  0
 10 12  1  0
 11 19  1  0
 12 20  2  0
 13 15  2  0
 14  1  1  0
 15  5  1  0
 16  1  2  0
 17  1  2  0
 18 22  1  0
 19  8  2  0
 20  8  1  0
 21  5  1  0
 22  3  2  0
 23 21  2  0
 24  4  2  0
 25 10  1  0
 26 14  1  0
 27 14  1  0
 28 25  2  0
 29 25  1  0
 30 27  1  0
 31 26  1  0
 32 29  2  0
 33 28  1  0
 34 32  1  0
  2  7  1  0
 23 13  1  0
 10 11  2  0
 34 33  2  0
M  END
> <COMPOUND_ID>
DNDI1914268

$$$$

  SciTegic10251309232D

 28 31  0  0  0  0            999 V2000
    7.8751   -9.1376    0.0000 C   0  0
    8.5834   -7.8959    0.0000 C   0  0
    8.5917  -10.3793    0.0000 N   0  0
    8.5876   -8.7209    0.0000 N   0  0
    7.8751   -9.9668    0.0000 C   0  0
    9.2959   -7.4792    0.0000 C   0  0
   10.7168   -6.6542    0.0000 C   0  0
   10.7209   -7.4792    0.0000 N   0  0
    9.9959   -6.2459    0.0000 N   0  0
    9.4876  -11.3668    0.0000 N   0  0
    5.0000   -8.3501    0.0000 N   0  0
    8.6792  -11.1960    0.0000 C   0  0
    5.7333   -8.7251    0.0000 C   0  0
   10.0084   -7.8959    0.0000 C   0  0
    9.2876   -6.6625    0.0000 C   0  0
    7.1584  -10.3793    0.0000 C   0  0
    9.3459  -10.0376    0.0000 C   0  0
    7.1584   -8.7251    0.0000 C   0  0
    9.9001  -10.6501    0.0000 C   0  0
    7.8667   -7.4876    0.0000 O   0  0
   11.4293   -6.2375    0.0000 C   0  0
    6.4459   -9.1376    0.0000 C   0  0
    6.4459   -9.9668    0.0000 C   0  0
   12.1418   -6.6500    0.0000 C   0  0
   11.4210   -5.4167    0.0000 C   0  0
   12.1293   -5.0000    0.0000 C   0  0
   12.8543   -6.2334    0.0000 C   0  0
   12.8501   -5.4084    0.0000 C   0  0
  2  4  1  0
  3  5  1  0
  4  1  1  0
  5  1  2  0
  6  2  1  0
  7  9  2  0
  8 14  2  0
  9 15  1  0
 10 12  2  0
 11 13  3  0
 12  3  1  0
 13 22  1  0
 14  6  1  0
 15  6  2  0
 16  5  1  0
 17  3  1  0
 18  1  1  0
 19 17  2  0
 20  2  2  0
 21  7  1  0
 22 18  2  0
 23 22  1  0
 24 21  2  0
 25 21  1  0
 26 25  2  0
 27 24  1  0
 28 26  1  0
 16 23  2  0
 19 10  1  0
  7  8  1  0
 28 27  2  0
M  END
> <COMPOUND_ID>
DNDI1915030

$$$$

  SciTegic10251309232D

 34 35  0  0  0  0            999 V2000
    0.2606    0.1503    0.0000 O   0  0
    1.3000    0.7500    0.0000 C   0  0
    2.3394    0.1503    0.0000 O   0  0
   10.2975   -4.4985    0.0000 S   0  0
   11.5977   -3.7489    0.0000 N   0  0
    8.9978   -3.7481    0.0000 C   0  0
    7.6987   -1.4981    0.0000 C   0  0
    8.9977   -2.2480    0.0000 C   0  0
    7.7018    0.0028    0.0000 N   0  0
   10.2971   -5.6985    0.0000 O   0  0
   11.3365   -5.0990    0.0000 O   0  0
    9.0026    0.7513    0.0000 C   0  0
   11.6086    6.7516    0.0000 N   0  0
    6.3997   -2.2481    0.0000 C   0  0
   12.8975   -4.4993    0.0000 C   0  0
    7.6987   -4.4981    0.0000 C   0  0
   10.0408    0.1495    0.0000 O   0  0
   10.3065    3.0007    0.0000 N   0  0
    6.3997   -3.7481    0.0000 C   0  0
   11.6086    5.2516    0.0000 C   0  0
    9.0057    2.2522    0.0000 C   0  0
    5.3604   -1.6481    0.0000 Cl  0  0
   10.3096    4.5016    0.0000 C   0  0
   11.6013   -2.2480    0.0000 C   0  0
   10.3096    7.5017    0.0000 C   0  0
   12.6479    7.3516    0.0000 C   0  0
    9.0106    6.7517    0.0000 C   0  0
   14.1981   -3.7520    0.0000 C   0  0
   12.8945   -5.9993    0.0000 C   0  0
    9.0105    5.2517    0.0000 C   0  0
   12.6416   -1.6498    0.0000 C   0  0
   14.1920   -6.7520    0.0000 C   0  0
   15.4956   -4.5046    0.0000 C   0  0
   15.4926   -6.0046    0.0000 C   0  0
  1  2  2  0
  2  3  1  0
  5  4  1  0
  6  4  1  0
  7  8  2  0
  8  6  1  0
  9  7  1  0
 10  4  2  0
 11  4  2  0
 12  9  1  0
 13 20  1  0
 14  7  1  0
 15  5  1  0
 16  6  2  0
 17 12  2  0
 18 21  1  0
 19 16  1  0
 20 23  1  0
 21 12  1  0
 22 14  1  0
 23 18  1  0
 24  5  1  0
 25 27  1  0
 26 13  1  0
 27 30  1  0
 28 15  1  0
 29 15  2  0
 30 23  1  0
 31 24  1  0
 32 29  1  0
 33 28  2  0
 34 33  1  0
 19 14  2  0
 34 32  2  0
 25 13  1  0
M  END
> <COMPOUND_ID>
DNDI1927429-8

$$$$

  SciTegic10251309232D

 30 33  0  0  0  0            999 V2000
    9.1563   -5.6587    0.0000 S   0  0
    7.7264   -7.3095    0.0000 C   0  0
    8.4351   -8.5518    0.0000 C   0  0
    6.3007   -7.3095    0.0000 N   0  0
    7.7223   -8.1350    0.0000 N   0  0
    7.0177   -6.8968    0.0000 C   0  0
    8.4351   -9.3773    0.0000 C   0  0
    8.4435   -6.0714    0.0000 C   0  0
    8.4268  -11.0240    0.0000 C   0  0
    8.4393   -6.9010    0.0000 C   0  0
    7.7139  -10.6071    0.0000 N   0  0
    9.1438  -10.6113    0.0000 N   0  0
    5.0000   -7.5847    0.0000 N   0  0
    5.5503   -6.9718    0.0000 C   0  0
    7.0136   -6.0714    0.0000 C   0  0
    7.7181   -9.7817    0.0000 C   0  0
    9.1438   -9.7858    0.0000 C   0  0
    8.6561   -5.0000    0.0000 O   0  0
    9.6441   -6.3298    0.0000 O   0  0
    6.2173   -8.1266    0.0000 C   0  0
    5.4127   -8.2975    0.0000 C   0  0
    9.1522   -8.1391    0.0000 O   0  0
    7.7223   -5.6587    0.0000 C   0  0
    8.4226  -11.8494    0.0000 C   0  0
    9.8692   -5.2376    0.0000 C   0  0
    9.1397  -12.2580    0.0000 C   0  0
    7.7098  -12.2580    0.0000 C   0  0
    7.7056  -13.0834    0.0000 C   0  0
    9.1397  -13.0834    0.0000 C   0  0
    8.4226  -13.4961    0.0000 C   0  0
  2 10  2  0
  3  5  1  0
  4  6  1  0
  5  2  1  0
  6 15  2  0
  7  3  1  0
  8  1  1  0
  9 12  1  0
 10  8  1  0
 11 16  1  0
 12 17  2  0
 13 14  2  0
 14  4  1  0
 15 23  1  0
 16  7  2  0
 17  7  1  0
 18  1  2  0
 19  1  2  0
 20  4  1  0
 21 20  2  0
 22  3  2  0
 23  8  2  0
 24  9  1  0
 25  1  1  0
 26 24  1  0
 27 24  2  0
 28 27  1  0
 29 26  2  0
 30 29  1  0
  2  6  1  0
 21 13  1  0
  9 11  2  0
 30 28  2  0
M  END
> <COMPOUND_ID>
DNDI1927445

$$$$

  SciTegic10251309232D

 30 33  0  0  0  0            999 V2000
    7.3766   -7.1522    0.0000 C   0  0
    5.7188   -5.7188    0.0000 C   0  0
    8.6147   -6.4376    0.0000 C   0  0
    7.3766   -8.5732    0.0000 N   0  0
    8.2034   -7.1522    0.0000 N   0  0
    6.9652   -7.8627    0.0000 C   0  0
    9.4373   -6.4376    0.0000 C   0  0
   11.0868   -6.4376    0.0000 C   0  0
   10.6755   -5.7271    0.0000 N   0  0
   10.6755   -7.1522    0.0000 N   0  0
    8.4900   -9.3002    0.0000 N   0  0
    6.1384   -6.4376    0.0000 C   0  0
    6.9652   -6.4376    0.0000 C   0  0
    8.1992   -8.5316    0.0000 C   0  0
    6.1384   -7.8627    0.0000 C   0  0
    9.8487   -5.7271    0.0000 C   0  0
    9.8487   -7.1522    0.0000 C   0  0
    7.1605   -9.3709    0.0000 C   0  0
    7.8544   -9.8196    0.0000 C   0  0
    8.2034   -5.7271    0.0000 O   0  0
    5.7271   -7.1522    0.0000 C   0  0
   11.9136   -6.4376    0.0000 C   0  0
    5.2991   -5.0000    0.0000 F   0  0
    6.4376   -5.2992    0.0000 F   0  0
    5.0000   -6.1384    0.0000 F   0  0
   12.3249   -7.1522    0.0000 C   0  0
   12.3249   -5.7271    0.0000 C   0  0
   13.1517   -5.7271    0.0000 C   0  0
   13.1517   -7.1522    0.0000 C   0  0
   13.5631   -6.4376    0.0000 C   0  0
  2 12  1  0
  3  5  1  0
  4  6  1  0
  5  1  1  0
  6  1  1  0
  7  3  1  0
  8  9  2  0
  9 16  1  0
 10 17  2  0
 11 14  2  0
 12 13  1  0
 13  1  2  0
 14  4  1  0
 15  6  2  0
 16  7  2  0
 17  7  1  0
 18  4  1  0
 19 18  2  0
 20  3  2  0
 21 12  2  0
 22  8  1  0
 23  2  1  0
 24  2  1  0
 25  2  1  0
 26 22  2  0
 27 22  1  0
 28 27  2  0
 29 26  1  0
 30 29  2  0
 15 21  1  0
 11 19  1  0
  8 10  1  0
 28 30  1  0
M  END
> <COMPOUND_ID>
DNDI1927860

$$$$

  SciTegic10251309232D

 21 23  0  0  0  0            999 V2000
    5.0000   -6.9536    0.0000 N   0  0
    9.1613   -6.6620    0.0000 C   0  0
    9.8736   -6.2455    0.0000 C   0  0
    6.2205   -7.4951    0.0000 N   0  0
    5.4124   -7.6659    0.0000 C   0  0
    6.3038   -6.6662    0.0000 C   0  0
   10.5859   -6.6579    0.0000 C   0  0
   11.2982   -6.2455    0.0000 C   0  0
   11.2982   -5.4207    0.0000 C   0  0
    5.5498   -6.3413    0.0000 C   0  0
    9.1613   -7.4868    0.0000 O   0  0
   12.0105   -5.0041    0.0000 C   0  0
    9.8736   -5.4207    0.0000 C   0  0
   10.5859   -5.0083    0.0000 C   0  0
    8.4449   -6.2496    0.0000 N   0  0
   12.0105   -6.6579    0.0000 C   0  0
   12.7270   -5.4165    0.0000 C   0  0
    7.0161   -6.2538    0.0000 C   0  0
    7.7326   -6.6662    0.0000 C   0  0
   12.7270   -6.2455    0.0000 C   0  0
   13.4393   -5.0000    0.0000 Br  0  0
  2 15  1  0
  3  2  1  0
  4  5  1  0
  5  1  2  0
  6 10  2  0
  7  3  1  0
  8  7  2  0
  9  8  1  0
 10  1  1  0
 11  2  2  0
 12  9  1  0
 13  3  2  0
 14 13  1  0
 15 19  1  0
 16  8  1  0
 17 12  2  0
 18  6  1  0
 19 18  1  0
 20 16  2  0
 21 17  1  0
  6  4  1  0
 14  9  2  0
 17 20  1  0
M  END
> <COMPOUND_ID>
DNDI1943712

$$$$

  SciTegic10251309232D

 31 34  0  0  0  0            999 V2000
    9.2451   -9.1368    0.0000 C   0  0
    9.9533   -7.8954    0.0000 C   0  0
    9.9617  -10.3783    0.0000 N   0  0
    9.9575   -8.7202    0.0000 N   0  0
    9.2451   -9.9658    0.0000 C   0  0
   10.6657   -7.4788    0.0000 C   0  0
   12.0863   -6.6539    0.0000 C   0  0
   12.0905   -7.4788    0.0000 N   0  0
   11.3656   -6.2456    0.0000 N   0  0
   10.8573  -11.3656    0.0000 N   0  0
    8.5286   -8.7244    0.0000 C   0  0
   10.0491  -11.1948    0.0000 C   0  0
    7.8162   -9.1368    0.0000 C   0  0
    8.5286  -10.3783    0.0000 C   0  0
   11.3781   -7.8954    0.0000 C   0  0
   10.6574   -6.6622    0.0000 C   0  0
    7.1038   -8.7285    0.0000 C   0  0
   10.7157  -10.0367    0.0000 C   0  0
   11.2698  -10.6491    0.0000 C   0  0
    6.3831   -9.1326    0.0000 N   0  0  3  0  0  0
    9.2368   -7.4871    0.0000 O   0  0
    7.8162   -9.9658    0.0000 C   0  0
   12.7987   -6.2373    0.0000 C   0  0
    5.7957   -8.5452    0.0000 O   0  0
    7.1080   -7.9037    0.0000 C   0  0
   13.5111   -6.6497    0.0000 C   0  0
   12.7903   -5.4166    0.0000 C   0  0
    5.0000   -8.7577    0.0000 C   0  0
   13.4986   -5.0000    0.0000 C   0  0
   14.2234   -6.2331    0.0000 C   0  0
   14.2193   -5.4083    0.0000 C   0  0
  2  4  1  0
  3  5  1  0
  4  1  1  0
  5  1  2  0
  6  2  1  0
  7  9  2  0
  8 15  2  0
  9 16  1  0
 10 12  2  0
 11  1  1  0
 12  3  1  0
 13 11  2  0
 14  5  1  0
 15  6  1  0
 16  6  2  0
 17 13  1  0
 18  3  1  0
 19 18  2  0
 20 17  2  0
 21  2  2  0
 22 13  1  0
 23  7  1  0
 20 24  1  4
 25 17  1  0
 26 23  2  0
 27 23  1  0
 28 24  1  0
 29 27  2  0
 30 26  1  0
 31 29  1  0
 14 22  2  0
 19 10  1  0
  7  8  1  0
 31 30  2  0
M  END
> <COMPOUND_ID>
DNDI1970185

$$$$

  SciTegic10251309232D

 22 24  0  0  0  0            999 V2000
    8.5680   -7.4730    0.0000 C   0  0
    7.8561   -7.8852    0.0000 N   0  0
    9.2841   -7.8852    0.0000 C   0  0
    7.8519   -6.2365    0.0000 N   0  0
   13.4474   -8.1475    0.0000 N   0  0
   12.2276   -8.6929    0.0000 N   0  0
   13.0353   -8.8636    0.0000 C   0  0
   12.1401   -7.8769    0.0000 C   0  0
    7.1441   -6.6529    0.0000 C   0  0
    8.5638   -6.6445    0.0000 C   0  0
   12.8937   -7.5355    0.0000 C   0  0
    7.1400   -7.4772    0.0000 C   0  0
    9.2841   -8.7096    0.0000 O   0  0
    9.9960   -7.4689    0.0000 N   0  0
    6.4280   -6.2407    0.0000 C   0  0
   11.4240   -7.4647    0.0000 C   0  0
   10.7121   -7.8811    0.0000 C   0  0
    5.7119   -6.6529    0.0000 C   0  0
    6.4280   -5.4122    0.0000 C   0  0
    5.0000   -6.2407    0.0000 C   0  0
    5.7119   -5.0000    0.0000 C   0  0
    5.0000   -5.4122    0.0000 C   0  0
  2  1  1  0
  3  1  1  0
  4 10  1  0
  5 11  1  0
  6  8  1  0
  7  6  1  0
  8 16  1  0
  9 12  1  0
 10  1  2  0
 11  8  2  0
 12  2  2  0
 13  3  2  0
 14  3  1  0
 15  9  1  0
 16 17  1  0
 17 14  1  0
 18 15  2  0
 19 15  1  0
 20 18  1  0
 21 19  2  0
 22 21  1  0
  9  4  2  0
 20 22  2  0
  5  7  2  0
M  END
> <COMPOUND_ID>
DNDI1977149

$$$$

  SciTegic10251309232D

 24 26  0  0  0  0            999 V2000
    7.1372   -5.8233    0.0000 N   0  0
   12.1267   -7.0582    0.0000 C   0  0
   12.1351   -6.2224    0.0000 C   0  0
    7.8524   -6.2349    0.0000 C   0  0
   11.4157   -5.8233    0.0000 C   0  0
   12.8461   -7.4781    0.0000 C   0  0
   12.8544   -5.8150    0.0000 C   0  0
   11.4157   -7.4698    0.0000 C   0  0
    6.4262   -6.2349    0.0000 C   0  0
    8.5634   -5.8233    0.0000 C   0  0
   10.7047   -6.2349    0.0000 C   0  0
    9.9896   -5.8233    0.0000 O   0  0
   13.5696   -7.0665    0.0000 C   0  0
    9.2785   -6.2349    0.0000 C   0  0
   10.7047   -7.0582    0.0000 C   0  0
   13.5696   -6.2308    0.0000 C   0  0
   14.2806   -7.4823    0.0000 Br  0  0
    8.5634   -5.0000    0.0000 O   0  0
    7.1372   -5.0000    0.0000 C   0  0
    5.7152   -5.8191    0.0000 C   0  0
    6.4303   -7.0540    0.0000 C   0  0
    5.7110   -7.4657    0.0000 C   0  0
    5.0042   -6.2266    0.0000 C   0  0
    5.0000   -7.0499    0.0000 C   0  0
  2  3  1  0
  3  5  2  0
  4  1  1  0
  5 11  1  0
  6  2  1  0
  7  3  1  0
  8 15  1  0
  9  1  1  0
 10  4  1  0
 11 12  1  0
 12 14  1  0
 13  6  2  0
 14 10  1  0
 15 11  2  0
 16  7  2  0
 17 13  1  0
 18 10  1  0
 19  1  1  0
 20  9  1  0
 21  9  1  0
 22 21  1  0
 23 20  1  0
 24 22  1  0
 24 23  1  0
  2  8  2  0
 16 13  1  0
M  END
> <COMPOUND_ID>
DNDI1977172

$$$$

  SciTegic10251309232D

 21 22  0  0  0  0            999 V2000
    6.4216   -5.8230    0.0000 N   0  0
   11.4182   -6.2221    0.0000 C   0  0
   11.4099   -7.0576    0.0000 C   0  0
    7.1366   -6.2345    0.0000 C   0  0
   10.6991   -5.8230    0.0000 C   0  0
   12.1290   -7.4774    0.0000 C   0  0
   10.6991   -7.4691    0.0000 C   0  0
   12.1373   -5.8147    0.0000 C   0  0
    7.8474   -5.8230    0.0000 C   0  0
    9.9882   -6.2345    0.0000 C   0  0
    9.2733   -5.8230    0.0000 O   0  0
   12.8523   -7.0659    0.0000 C   0  0
    5.7150   -6.2345    0.0000 C   0  0
    8.5624   -6.2345    0.0000 C   0  0
    9.9882   -7.0576    0.0000 C   0  0
   12.8523   -6.2304    0.0000 C   0  0
   13.5631   -7.4816    0.0000 Br  0  0
    7.8474   -5.0000    0.0000 O   0  0
    6.4300   -5.0000    0.0000 C   0  0
    5.0000   -5.8272    0.0000 C   0  0
    5.7191   -7.0576    0.0000 C   0  0
  2  5  2  0
  3  7  2  0
  4  1  1  0
  5 10  1  0
  6  3  1  0
  7 15  1  0
  8  2  1  0
  9  4  1  0
 10 11  1  0
 11 14  1  0
 12  6  2  0
 13  1  1  0
 14  9  1  0
 15 10  2  0
 16  8  2  0
 17 12  1  0
 18  9  1  0
 19  1  1  0
 20 13  1  0
 21 13  1  0
  3  2  1  0
 16 12  1  0
M  END
> <COMPOUND_ID>
DNDI1977174

$$$$

  SciTegic10251309232D

 25 28  0  0  0  0            999 V2000
    5.0012   -5.4130    0.0000 N   0  0
    5.0000   -6.2409    0.0000 C   0  0
    5.7153   -6.6541    0.0000 C   0  0
    6.4322   -6.2404    0.0000 C   0  0
    6.4293   -5.4094    0.0000 C   0  0
    5.7135   -5.0000    0.0000 C   0  0
    5.7151   -7.4796    0.0000 C   0  0
    6.4299   -7.8925    0.0000 N   0  0
    6.4297   -8.7180    0.0000 C   0  0
    7.1445   -9.1310    0.0000 C   0  0
    7.1449   -7.4799    0.0000 C   0  0
    7.8570   -7.8937    0.0000 C   0  0
    8.5715   -7.4818    0.0000 C   0  0
    8.5722   -6.6554    0.0000 C   0  0
    7.8523   -6.2426    0.0000 C   0  0
    7.1407   -6.6569    0.0000 C   0  0
    9.2862   -7.8951    0.0000 C   0  0
    9.3730   -8.7141    0.0000 N   0  0
   10.0417   -7.5579    0.0000 S   0  0
   10.5937   -8.1717    0.0000 C   0  0
   10.1796   -8.8835    0.0000 C   0  0
   10.5890   -9.5959    0.0000 C   0  0
   11.4123   -9.5977    0.0000 C   0  0
   11.8245   -8.8811    0.0000 C   0  0
   11.4128   -8.1716    0.0000 C   0  0
  1  2  2  0
  2  3  1  0
  3  4  2  0
  4  5  1  0
  5  6  2  0
  6  1  1  0
  3  7  1  0
  7  8  1  0
  8  9  1  0
  9 10  1  0
  8 11  1  0
 11 12  2  0
 12 13  1  0
 13 14  2  0
 14 15  1  0
 15 16  2  0
 16 11  1  0
 13 17  1  0
 17 18  2  0
 18 21  1  0
 20 19  1  0
 19 17  1  0
 20 21  2  0
 21 22  1  0
 22 23  2  0
 23 24  1  0
 24 25  2  0
 25 20  1  0
M  END
> <COMPOUND_ID>
DNDI1977185

$$$$

  SciTegic10251309232D

 24 26  0  0  0  0            999 V2000
    5.7170   -7.0594    0.0000 N   0  0
   12.8499   -6.2465    0.0000 C   0  0
   12.8499   -7.0719    0.0000 C   0  0
   12.1370   -5.8337    0.0000 C   0  0
   13.5628   -7.4846    0.0000 C   0  0
    7.8556   -5.8212    0.0000 N   0  0
   12.1329   -7.4846    0.0000 C   0  0
   13.5628   -5.8337    0.0000 C   0  0
    6.4257   -5.8129    0.0000 C   0  0
    7.1386   -7.0594    0.0000 C   0  0
    6.4257   -7.4638    0.0000 C   0  0
    5.7170   -6.2340    0.0000 C   0  0
    7.1386   -6.2340    0.0000 C   0  0
   11.4283   -6.2465    0.0000 C   0  0
   10.7155   -5.8296    0.0000 O   0  0
   14.2798   -7.0719    0.0000 C   0  0
    9.2856   -5.8254    0.0000 C   0  0
    8.5685   -6.2381    0.0000 C   0  0
    9.9984   -6.2423    0.0000 C   0  0
   11.4200   -7.0719    0.0000 C   0  0
   14.2756   -6.2423    0.0000 C   0  0
   14.9968   -7.4846    0.0000 Br  0  0
    9.2897   -5.0000    0.0000 O   0  0
    5.0000   -7.4721    0.0000 C   0  0
  2  4  2  0
  3  2  1  0
  4 14  1  0
  5  3  1  0
  6 13  1  0
  7 20  1  0
  8  2  1  0
  9 12  1  0
 10 11  1  0
 11  1  1  0
 12  1  1  0
 13 10  1  0
 14 15  1  0
 15 19  1  0
 16 21  1  0
 17 18  1  0
 18  6  1  0
 19 17  1  0
 20 14  2  0
 21  8  2  0
 22 16  1  0
 23 17  1  0
 24  1  1  0
  9 13  1  0
  3  7  2  0
 16  5  2  0
M  END
> <COMPOUND_ID>
DNDI1977189

$$$$

  SciTegic10251309232D

 25 27  0  0  0  0            999 V2000
    5.7085   -5.8252    0.0000 N   0  0
   12.8478   -7.4839    0.0000 C   0  0
   12.8478   -8.3133    0.0000 C   0  0
   12.1351   -7.0755    0.0000 C   0  0
   13.5646   -8.7259    0.0000 C   0  0
    6.4212   -6.2461    0.0000 C   0  0
   12.1351   -8.7259    0.0000 C   0  0
   13.5604   -7.0713    0.0000 C   0  0
    7.8507   -7.0713    0.0000 N   0  0
   11.4224   -7.4881    0.0000 C   0  0
   10.7097   -7.0755    0.0000 O   0  0
   14.2815   -8.3133    0.0000 C   0  0
    6.4212   -7.0713    0.0000 C   0  0
    9.2802   -7.0713    0.0000 C   0  0
    9.9971   -7.4881    0.0000 C   0  0
   11.4224   -8.3133    0.0000 C   0  0
   14.2773   -7.4798    0.0000 C   0  0
   14.9983   -8.7259    0.0000 Br  0  0
    9.2802   -6.2461    0.0000 O   0  0
    5.0000   -6.2461    0.0000 C   0  0
    7.1380   -7.4839    0.0000 C   0  0
    5.7085   -5.0000    0.0000 C   0  0
    8.5675   -7.4839    0.0000 C   0  0
    5.0000   -7.0713    0.0000 C   0  0
    5.7085   -7.4756    0.0000 C   0  0
  2  4  2  0
  3  2  1  0
  4 10  1  0
  5  3  1  0
  6  1  1  0
  7 16  1  0
  8  2  1  0
  9 21  1  0
 10 11  1  0
 11 15  1  0
 12 17  1  0
 13  6  1  0
 14 23  1  0
 15 14  1  0
 16 10  2  0
 17  8  2  0
 18 12  1  0
 19 14  1  0
 20  1  1  0
 21 13  1  0
 22  1  1  0
 23  9  1  0
 24 20  1  0
 25 24  1  0
 13 25  1  0
  3  7  2  0
 12  5  2  0
M  END
> <COMPOUND_ID>
DNDI1977190

$$$$

  SciTegic10251309232D

 28 32  0  0  0  0            999 V2000
    5.0012   -5.4130    0.0000 N   0  0
    5.0000   -6.2409    0.0000 C   0  0
    5.7153   -6.6540    0.0000 C   0  0
    6.4322   -6.2404    0.0000 C   0  0
    6.4293   -5.4094    0.0000 C   0  0
    5.7135   -5.0000    0.0000 C   0  0
    5.7151   -7.4796    0.0000 C   0  0
    6.4299   -7.8925    0.0000 N   0  0
    6.4297   -8.7180    0.0000 C   0  0
    7.1449   -7.4799    0.0000 C   0  0
    7.8570   -7.8937    0.0000 C   0  0
    8.5715   -7.4818    0.0000 C   0  0
    8.5722   -6.6554    0.0000 C   0  0
    7.8523   -6.2426    0.0000 C   0  0
    7.1407   -6.6569    0.0000 C   0  0
    9.2862   -7.8951    0.0000 C   0  0
    9.3730   -8.7141    0.0000 N   0  0
   10.0417   -7.5579    0.0000 S   0  0
   10.5937   -8.1716    0.0000 C   0  0
   10.1796   -8.8835    0.0000 C   0  0
   10.5890   -9.5959    0.0000 C   0  0
   11.4123   -9.5977    0.0000 C   0  0
   11.8245   -8.8811    0.0000 C   0  0
   11.4128   -8.1716    0.0000 C   0  0
    5.7147   -9.1306    0.0000 O   0  0
    7.1445   -9.1310    0.0000 C   0  0
    7.5583   -9.8414    0.0000 C   0  0
    7.9713   -9.1266    0.0000 C   0  0
  1  2  2  0
  2  3  1  0
  3  4  2  0
  4  5  1  0
  5  6  2  0
  6  1  1  0
  3  7  1  0
  7  8  1  0
  8  9  1  0
  8 10  1  0
 10 11  2  0
 11 12  1  0
 12 13  2  0
 13 14  1  0
 14 15  2  0
 15 10  1  0
 12 16  1  0
 16 17  2  0
 17 20  1  0
 19 18  1  0
 18 16  1  0
 19 20  2  0
 20 21  1  0
 21 22  2  0
 22 23  1  0
 23 24  2  0
 24 19  1  0
  9 25  2  0
  9 26  1  0
 27 26  1  0
 28 27  1  0
 26 28  1  0
M  END
> <COMPOUND_ID>
DNDI1977200

$$$$

  SciTegic10251309232D

 27 30  0  0  0  0            999 V2000
    6.4315   -7.6611    0.0000 C   0  0
    6.4304   -8.4883    0.0000 C   0  0
    7.1450   -8.9011    0.0000 C   0  0
    7.8613   -8.4878    0.0000 C   0  0
    7.8584   -7.6575    0.0000 C   0  0
    7.1432   -7.2485    0.0000 C   0  0
    5.7172   -7.2489    0.0000 C   0  0
    5.0000   -6.8364    0.0000 N   0  0
    8.5762   -8.8991    0.0000 N   0  0
    8.6643   -9.7168    0.0000 C   0  0
    9.4713   -9.8870    0.0000 C   0  0
    9.8826   -9.1720    0.0000 N   0  0
    9.3297   -8.5600    0.0000 C   0  0
    8.5712   -7.2424    0.0000 N   0  0
    8.5658   -6.4157    0.0000 C   0  0
    9.2774   -5.9986    0.0000 C   0  0
    7.8488   -6.0079    0.0000 O   0  0
   10.0293   -6.3281    0.0000 S   0  0
   10.5772   -5.7116    0.0000 C   0  0
   10.1601   -5.0000    0.0000 N   0  0
    9.3545   -5.1768    0.0000 C   0  0
   11.3980   -5.7925    0.0000 C   0  0
   11.7360   -6.5442    0.0000 C   0  0
   12.5560   -6.6254    0.0000 C   0  0
   13.0373   -5.9545    0.0000 C   0  0
   12.6928   -5.2004    0.0000 C   0  0
   11.8737   -5.1229    0.0000 C   0  0
  1  2  2  0
  2  3  1  0
  3  4  2  0
  4  5  1  0
  5  6  2  0
  6  1  1  0
  1  7  1  0
  7  8  3  0
  4  9  1  0
  9 10  1  0
 10 11  2  0
 11 12  1  0
 12 13  2  0
 13  9  1  0
  5 14  1  0
 14 15  1  0
 15 16  1  0
 15 17  2  0
 16 18  1  0
 18 19  1  0
 19 20  2  0
 20 21  1  0
 21 16  2  0
 19 22  1  0
 22 23  2  0
 23 24  1  0
 24 25  2  0
 25 26  1  0
 26 27  2  0
 27 22  1  0
M  END
> <COMPOUND_ID>
DNDI1977202

$$$$

  SciTegic10251309232D

 31 34  0  0  0  0            999 V2000
    6.4285   -9.5064    0.0000 S   0  0
    9.9895   -8.2569    0.0000 C   0  0
   10.0728   -7.4323    0.0000 S   0  0
   10.8766   -7.2573    0.0000 C   0  0
   11.2931   -7.9695    0.0000 N   0  0
    9.2773   -8.6734    0.0000 C   0  0
    8.5693   -9.9145    0.0000 C   0  0
    7.1407   -9.9145    0.0000 C   0  0
    9.2856  -11.1556    0.0000 N   0  0
   10.7433   -8.5859    0.0000 C   0  0
    9.2815   -9.4980    0.0000 N   0  0
    8.5693  -10.7433    0.0000 C   0  0
    7.8529   -9.5022    0.0000 C   0  0
   10.1811  -12.1427    0.0000 N   0  0
    5.7122   -9.0899    0.0000 N   0  0
    9.3731  -11.9719    0.0000 C   0  0
    6.8325   -8.7900    0.0000 O   0  0
    6.0079  -10.2185    0.0000 O   0  0
    7.8529  -11.1556    0.0000 C   0  0
   10.0395  -10.8141    0.0000 C   0  0
    7.1407  -10.7433    0.0000 C   0  0
   10.5934  -11.4263    0.0000 C   0  0
    8.5609   -8.2652    0.0000 O   0  0
   11.2098   -6.5035    0.0000 C   0  0
    5.7122   -8.2652    0.0000 C   0  0
    5.0000   -9.5022    0.0000 C   0  0
   12.0302   -6.4202    0.0000 C   0  0
   10.7225   -5.8455    0.0000 C   0  0
   11.0515   -5.0916    0.0000 C   0  0
   12.3634   -5.6664    0.0000 C   0  0
   11.8761   -5.0000    0.0000 C   0  0
  2  6  1  0
  3  2  1  0
  4  3  1  0
  5 10  1  0
  6 11  1  0
  7 13  2  0
  8  1  1  0
  9 12  1  0
 10  2  2  0
 11  7  1  0
 12 19  2  0
 13  8  1  0
 14 16  2  0
 15  1  1  0
 16  9  1  0
 17  1  2  0
 18  1  2  0
 19 21  1  0
 20  9  1  0
 21  8  2  0
 22 20  2  0
 23  6  2  0
 24  4  1  0
 25 15  1  0
 26 15  1  0
 27 24  2  0
 28 24  1  0
 29 28  2  0
 30 27  1  0
 31 29  1  0
  7 12  1  0
 22 14  1  0
  4  5  2  0
 31 30  2  0
M  END
> <COMPOUND_ID>
DNDI1977370

$$$$

  SciTegic10251309232D

 28 31  0  0  0  0            999 V2000
    6.4218   -6.2259    0.0000 S   0  0
    9.2780   -7.0347    0.0000 C   0  0
   10.0285   -7.3683    0.0000 N   0  0
    9.3572   -6.2133    0.0000 S   0  0
    6.4260   -7.0514    0.0000 N   0  0
    7.1390   -7.4600    0.0000 C   0  0
   10.5789   -6.7470    0.0000 C   0  0
   10.1619   -6.0382    0.0000 C   0  0
    8.5650   -7.4517    0.0000 C   0  0
    7.8478   -7.0431    0.0000 C   0  0
    7.2182   -6.0090    0.0000 O   0  0
    5.6213   -6.0090    0.0000 O   0  0
    5.7088   -7.4642    0.0000 C   0  0
    5.0000   -9.5323    0.0000 N   0  0
    5.7130   -8.2898    0.0000 C   0  0
    6.4343   -5.4003    0.0000 C   0  0
    5.0000   -8.7026    0.0000 C   0  0
    7.1390   -8.2856    0.0000 C   0  0
    8.5691   -8.2814    0.0000 C   0  0
    7.8561   -8.6942    0.0000 C   0  0
   11.4003   -6.7429    0.0000 C   0  0
   10.5664   -5.3252    0.0000 C   0  0
    5.7130   -9.9451    0.0000 C   0  0
    6.4302   -8.7026    0.0000 C   0  0
    7.1557   -5.0000    0.0000 C   0  0
    6.4302   -9.5323    0.0000 C   0  0
   11.3836   -5.3169    0.0000 C   0  0
   11.8047   -6.0257    0.0000 C   0  0
  2  9  1  0
  3  2  2  0
  4  2  1  0
  5  1  1  0
  6  5  1  0
  7  3  1  0
  8  4  1  0
  9 10  2  0
 10  6  1  0
 11  1  2  0
 12  1  2  0
 13  5  1  0
 14 17  2  0
 15 13  1  0
 16  1  1  0
 17 15  1  0
 18  6  2  0
 19  9  1  0
 20 18  1  0
 21  7  1  0
 22  8  1  0
 23 14  1  0
 24 15  2  0
 25 16  1  0
 26 24  1  0
 27 22  2  0
 28 21  2  0
 19 20  2  0
 26 23  2  0
  7  8  2  0
 27 28  1  0
M  END
> <COMPOUND_ID>
DNDI2002936

$$$$

  SciTegic10251309232D

 25 28  0  0  0  0            999 V2000
   10.7252   -6.6555    0.0000 C   0  0
   10.8086   -7.4728    0.0000 N   0  0
   11.4758   -6.3135    0.0000 S   0  0
   10.0080   -6.2427    0.0000 C   0  0
   11.6134   -7.6396    0.0000 C   0  0
   12.0304   -6.9265    0.0000 C   0  0
    9.2908   -6.6555    0.0000 C   0  0
    7.8605   -6.6555    0.0000 N   0  0
    8.5777   -6.2427    0.0000 C   0  0
    9.2908   -5.0000    0.0000 N   0  0
    7.1475   -6.2427    0.0000 C   0  0
    5.7214   -7.8897    0.0000 N   0  0
    6.4303   -6.6555    0.0000 C   0  0
   10.0080   -5.4129    0.0000 C   0  0
    8.5777   -5.4129    0.0000 C   0  0
    6.4344   -7.4769    0.0000 C   0  0
    7.8605   -7.4811    0.0000 C   0  0
   12.0220   -8.3484    0.0000 C   0  0
   12.8477   -6.9265    0.0000 C   0  0
    5.0000   -7.4769    0.0000 C   0  0
    5.7172   -6.2385    0.0000 C   0  0
    8.5777   -7.8939    0.0000 C   0  0
    5.0042   -6.6513    0.0000 C   0  0
   13.2563   -7.6354    0.0000 C   0  0
   12.8477   -8.3526    0.0000 C   0  0
  2  1  2  0
  3  1  1  0
  4  1  1  0
  5  2  1  0
  6  3  1  0
  7  4  2  0
  8  9  1  0
  9  7  1  0
 10 14  2  0
 11  8  1  0
 12 16  2  0
 13 11  1  0
 14  4  1  0
 15 10  1  0
 16 13  1  0
 17  8  1  0
 18  5  1  0
 19  6  1  0
 20 12  1  0
 21 13  2  0
 22 17  1  0
 23 21  1  0
 24 19  2  0
 25 18  2  0
  5  6  2  0
 24 25  1  0
  9 15  2  0
 20 23  2  0
M  END
> <COMPOUND_ID>
DNDI2004035

$$$$

  SciTegic10251309232D

 30 33  0  0  0  0            999 V2000
    8.6133  -10.7846    0.0000 C   0  0
    9.2837  -11.2718    0.0000 S   0  0
    9.0255  -12.0548    0.0000 C   0  0
    8.2010  -12.0548    0.0000 N   0  0
    8.6133   -9.9600    0.0000 C   0  0
    7.8969   -8.7231    0.0000 C   0  0
    6.4685   -8.7231    0.0000 N   0  0
    7.9469  -11.2718    0.0000 C   0  0
    7.8969   -9.5477    0.0000 N   0  0
    7.1848   -8.3108    0.0000 C   0  0
    5.1650   -8.9938    0.0000 N   0  0
    8.6133   -8.3108    0.0000 C   0  0
    5.7189   -8.3816    0.0000 C   0  0
    8.6133   -7.4821    0.0000 C   0  0
    7.1848   -7.4821    0.0000 C   0  0
    9.3254   -7.0656    0.0000 C   0  0
    6.3852   -9.5352    0.0000 C   0  0
    5.5773   -9.7101    0.0000 C   0  0
    9.3212   -6.2410    0.0000 N   0  0  3  0  0  0
    9.3254   -9.5477    0.0000 O   0  0
    9.5128  -12.7253    0.0000 C   0  0
    7.8969   -7.0698    0.0000 C   0  0
   10.0334   -5.8246    0.0000 O   0  0
   10.0417   -7.4738    0.0000 C   0  0
    9.1713  -13.4749    0.0000 C   0  0
   10.3249  -12.6336    0.0000 C   0  0
   10.0292   -5.0000    0.0000 C   0  0
    9.6544  -14.1412    0.0000 C   0  0
   10.8121  -13.3000    0.0000 C   0  0
   10.4790  -14.0579    0.0000 C   0  0
  2  1  1  0
  3  2  1  0
  4  8  1  0
  5  1  1  0
  6  9  1  0
  7 10  1  0
  8  1  2  0
  9  5  1  0
 10  6  1  0
 11 13  2  0
 12  6  2  0
 13  7  1  0
 14 12  1  0
 15 10  2  0
 16 14  1  0
 17  7  1  0
 18 17  2  0
 19 16  2  0
 20  5  2  0
 21  3  1  0
 22 15  1  0
 19 23  1  4
 24 16  1  0
 25 21  2  0
 26 21  1  0
 27 23  1  0
 28 25  1  0
 29 26  2  0
 30 29  1  0
  3  4  2  0
 30 28  2  0
 22 14  2  0
 18 11  1  0
M  END
> <COMPOUND_ID>
DNDI2030944

$$$$

  SciTegic10251309232D

 30 33  0  0  0  0            999 V2000
    5.7244   -7.8832    0.0000 C   0  0
    5.7232   -8.7105    0.0000 C   0  0
    6.4380   -9.1233    0.0000 C   0  0
    7.1544   -8.7100    0.0000 C   0  0
    7.1515   -7.8796    0.0000 C   0  0
    6.4362   -7.4705    0.0000 C   0  0
    7.8694   -9.1214    0.0000 N   0  0
    6.4378   -9.9483    0.0000 N   0  0
    5.7754  -10.4330    0.0000 C   0  0
    6.0301  -11.2176    0.0000 N   0  0
    6.8551  -11.2178    0.0000 C   0  0
    7.1100  -10.4333    0.0000 C   0  0
    8.5797   -8.7040    0.0000 C   0  0
    9.2972   -9.1110    0.0000 C   0  0
    8.5734   -7.8791    0.0000 O   0  0
    9.2998   -9.9342    0.0000 C   0  0
   10.0165  -10.3411    0.0000 N   0  0
   10.7287   -9.9231    0.0000 C   0  0
   10.7197   -9.0940    0.0000 C   0  0
   10.0025   -8.6908    0.0000 C   0  0
   11.4468  -10.3292    0.0000 C   0  0
    6.4337   -6.6456    0.0000 C   0  0
    7.1469   -6.2310    0.0000 C   0  0
    5.7181   -6.2353    0.0000 N   0  0
    5.7156   -5.4103    0.0000 O   0  0
    5.0000   -5.0000    0.0000 C   0  0
   11.5406  -11.1479    0.0000 S   0  0
   12.3490  -11.3122    0.0000 C   0  0
   12.7551  -10.5941    0.0000 C   0  0
   12.1976   -9.9861    0.0000 C   0  0
  1  2  2  0
  2  3  1  0
  3  4  2  0
  4  5  1  0
  5  6  2  0
  6  1  1  0
  4  7  1  0
  3  8  1  0
  8  9  1  0
  9 10  2  0
 10 11  1  0
 11 12  2  0
 12  8  1  0
  7 13  1  0
 13 14  1  0
 13 15  2  0
 14 16  2  0
 16 17  1  0
 17 18  2  0
 18 19  1  0
 19 20  2  0
 20 14  1  0
 18 21  1  0
  6 22  1  0
 22 23  1  0
 22 24  2  0
 24 25  1  0
 25 26  1  0
 21 27  1  0
 27 28  1  0
 28 29  2  0
 29 30  1  0
 30 21  2  0
M  END
> <COMPOUND_ID>
DNDI2035675

$$$$

  SciTegic10251309232D

 31 34  0  0  0  0            999 V2000
    5.7245   -7.8834    0.0000 C   0  0
    5.7233   -8.7107    0.0000 C   0  0
    6.4381   -9.1236    0.0000 C   0  0
    7.1545   -8.7102    0.0000 C   0  0
    7.1516   -7.8797    0.0000 C   0  0
    6.4363   -7.4706    0.0000 C   0  0
    7.8696   -9.1216    0.0000 N   0  0
    6.4379   -9.9485    0.0000 N   0  0
    5.7754  -10.4333    0.0000 C   0  0
    6.0302  -11.2179    0.0000 N   0  0
    6.8552  -11.2181    0.0000 C   0  0
    7.1102  -10.4336    0.0000 C   0  0
    8.5800   -8.7042    0.0000 C   0  0
    9.2975   -9.1112    0.0000 C   0  0
    8.5737   -7.8793    0.0000 O   0  0
    9.3001   -9.9344    0.0000 C   0  0
   10.0168  -10.3414    0.0000 N   0  0
   10.7291   -9.9234    0.0000 C   0  0
   10.7201   -9.0942    0.0000 C   0  0
   10.0028   -8.6910    0.0000 C   0  0
   11.4472  -10.3295    0.0000 C   0  0
    6.4338   -6.6456    0.0000 C   0  0
    7.1470   -6.2310    0.0000 C   0  0
    5.7181   -6.2353    0.0000 N   0  0
    5.7157   -5.4103    0.0000 O   0  0
    5.0000   -5.0000    0.0000 C   0  0
   11.4511  -11.1552    0.0000 C   0  0
   12.1684  -11.5612    0.0000 C   0  0
   12.8801  -11.1423    0.0000 C   0  0
   12.8700  -10.3131    0.0000 C   0  0
   12.1522   -9.9108    0.0000 C   0  0
  1  2  2  0
  2  3  1  0
  3  4  2  0
  4  5  1  0
  5  6  2  0
  6  1  1  0
  4  7  1  0
  3  8  1  0
  8  9  1  0
  9 10  2  0
 10 11  1  0
 11 12  2  0
 12  8  1  0
  7 13  1  0
 13 14  1  0
 13 15  2  0
 14 16  2  0
 16 17  1  0
 17 18  2  0
 18 19  1  0
 19 20  2  0
 20 14  1  0
 18 21  1  0
  6 22  1  0
 22 23  1  0
 22 24  2  0
 24 25  1  0
 25 26  1  0
 21 27  2  0
 27 28  1  0
 28 29  2  0
 29 30  1  0
 30 31  2  0
 31 21  1  0
M  END
> <COMPOUND_ID>
DNDI2035676

$$$$

  SciTegic10251309232D

 31 34  0  0  0  0            999 V2000
    5.7245   -7.8834    0.0000 C   0  0
    5.7233   -8.7107    0.0000 C   0  0
    6.4381   -9.1236    0.0000 C   0  0
    7.1545   -8.7102    0.0000 C   0  0
    7.1516   -7.8797    0.0000 C   0  0
    6.4363   -7.4706    0.0000 C   0  0
    7.8696   -9.1216    0.0000 N   0  0
    6.4379   -9.9485    0.0000 N   0  0
    5.7754  -10.4333    0.0000 C   0  0
    6.0302  -11.2179    0.0000 N   0  0
    6.8552  -11.2181    0.0000 C   0  0
    7.1102  -10.4336    0.0000 C   0  0
    8.5800   -8.7042    0.0000 C   0  0
    9.2975   -9.1112    0.0000 C   0  0
    8.5737   -7.8793    0.0000 O   0  0
    9.3001   -9.9344    0.0000 C   0  0
   10.0168  -10.3414    0.0000 C   0  0
   10.7291   -9.9234    0.0000 C   0  0
   10.7201   -9.0942    0.0000 C   0  0
   10.0028   -8.6910    0.0000 C   0  0
   11.4472  -10.3295    0.0000 C   0  0
    6.4338   -6.6456    0.0000 C   0  0
    7.1470   -6.2310    0.0000 C   0  0
    5.7181   -6.2353    0.0000 N   0  0
    5.7157   -5.4103    0.0000 O   0  0
    5.0000   -5.0000    0.0000 C   0  0
   11.4511  -11.1552    0.0000 C   0  0
   12.1684  -11.5612    0.0000 C   0  0
   12.8801  -11.1423    0.0000 C   0  0
   12.8700  -10.3131    0.0000 C   0  0
   12.1522   -9.9108    0.0000 C   0  0
  1  2  2  0
  2  3  1  0
  3  4  2  0
  4  5  1  0
  5  6  2  0
  6  1  1  0
  4  7  1  0
  3  8  1  0
  8  9  1  0
  9 10  2  0
 10 11  1  0
 11 12  2  0
 12  8  1  0
  7 13  1  0
 13 14  1  0
 13 15  2  0
 14 16  2  0
 16 17  1  0
 17 18  2  0
 18 19  1  0
 19 20  2  0
 20 14  1  0
 18 21  1  0
  6 22  1  0
 22 23  1  0
 22 24  2  0
 24 25  1  0
 25 26  1  0
 21 27  2  0
 27 28  1  0
 28 29  2  0
 29 30  1  0
 30 31  2  0
 31 21  1  0
M  END
> <COMPOUND_ID>
DNDI2035677

$$$$

  SciTegic10251309232D

 30 33  0  0  0  0            999 V2000
    5.7243   -7.8828    0.0000 C   0  0
    5.7231   -8.7099    0.0000 C   0  0
    6.4378   -9.1227    0.0000 C   0  0
    7.1540   -8.7094    0.0000 C   0  0
    7.1512   -7.8791    0.0000 C   0  0
    6.4359   -7.4701    0.0000 C   0  0
    7.8689   -9.1207    0.0000 N   0  0
    6.4376   -9.9475    0.0000 N   0  0
    5.7752  -10.4321    0.0000 C   0  0
    6.0299  -11.2166    0.0000 N   0  0
    6.8548  -11.2168    0.0000 C   0  0
    7.1097  -10.4324    0.0000 C   0  0
    8.5791   -8.7034    0.0000 C   0  0
    9.2965   -9.1104    0.0000 C   0  0
    8.5728   -7.8787    0.0000 O   0  0
    6.4335   -6.6453    0.0000 C   0  0
    7.1465   -6.2308    0.0000 C   0  0
    5.7180   -6.2351    0.0000 N   0  0
    5.7155   -5.4103    0.0000 O   0  0
    5.0000   -5.0000    0.0000 C   0  0
    9.3920   -9.9285    0.0000 S   0  0
   10.2001  -10.0938    0.0000 C   0  0
   10.6070   -9.3764    0.0000 C   0  0
   10.0504   -8.7678    0.0000 C   0  0
   10.5413  -10.8447    0.0000 C   0  0
   10.0587  -11.5147    0.0000 C   0  0
   10.3993  -12.2650    0.0000 C   0  0
   11.2210  -12.3455    0.0000 C   0  0
   11.7010  -11.6695    0.0000 C   0  0
   11.3578  -10.9219    0.0000 N   0  0
  1  2  2  0
  2  3  1  0
  3  4  2  0
  4  5  1  0
  5  6  2  0
  6  1  1  0
  4  7  1  0
  3  8  1  0
  8  9  1  0
  9 10  2  0
 10 11  1  0
 11 12  2  0
 12  8  1  0
  7 13  1  0
 13 14  1  0
 13 15  2  0
  6 16  1  0
 16 17  1  0
 16 18  2  0
 18 19  1  0
 19 20  1  0
 14 21  1  0
 21 22  1  0
 22 23  2  0
 23 24  1  0
 24 14  2  0
 22 25  1  0
 25 26  2  0
 26 27  1  0
 27 28  2  0
 28 29  1  0
 29 30  2  0
 30 25  1  0
M  END
> <COMPOUND_ID>
DNDI2035678

$$$$

  SciTegic10251309232D

 28 32  0  0  0  0            999 V2000
    5.0012   -6.6624    0.0000 C   0  0
    5.0000   -7.4904    0.0000 C   0  0
    5.7154   -7.9036    0.0000 N   0  0
    6.4324   -7.4899    0.0000 C   0  0
    6.4295   -6.6587    0.0000 C   0  0
    5.7136   -6.2493    0.0000 C   0  0
    7.1430   -6.2432    0.0000 C   0  0
    7.8596   -6.6533    0.0000 N   0  0
    8.5731   -6.2378    0.0000 C   0  0
    7.8627   -7.4790    0.0000 C   0  0
    7.1492   -7.8945    0.0000 O   0  0
    8.5793   -7.8891    0.0000 C   0  0
    9.2881   -6.6514    0.0000 C   0  0
   10.0011   -6.2365    0.0000 C   0  0
    9.9984   -5.4100    0.0000 C   0  0
    9.2768   -5.0000    0.0000 N   0  0
    8.5668   -5.4172    0.0000 C   0  0
   10.7175   -6.6470    0.0000 C   0  0
   10.8077   -7.4655    0.0000 N   0  0
   11.4718   -6.3064    0.0000 S   0  0
   12.0264   -6.9180    0.0000 C   0  0
   11.6151   -7.6314    0.0000 C   0  0
   12.0271   -8.3421    0.0000 C   0  0
   12.8503   -8.3407    0.0000 C   0  0
   13.2597   -7.6227    0.0000 C   0  0
   12.8453   -6.9149    0.0000 C   0  0
    8.9939   -8.5993    0.0000 C   0  0
    9.4040   -7.8827    0.0000 C   0  0
  1  2  2  0
  2  3  1  0
  3  4  2  0
  4  5  1  0
  5  6  2  0
  6  1  1  0
  5  7  1  0
  7  8  1  0
  8  9  1  0
  8 10  1  0
 10 11  2  0
 10 12  1  0
  9 13  2  0
 13 14  1  0
 14 15  2  0
 15 16  1  0
 16 17  2  0
 17  9  1  0
 14 18  1  0
 18 19  2  0
 19 22  1  0
 21 20  1  0
 20 18  1  0
 21 22  2  0
 22 23  1  0
 23 24  2  0
 24 25  1  0
 25 26  2  0
 26 21  1  0
 27 12  1  0
 28 27  1  0
 12 28  1  0
M  END
> <COMPOUND_ID>
DNDI2035693

$$$$

  SciTegic10251309232D

 30 33  0  0  0  0            999 V2000
   10.7309   -7.1491    0.0000 C   0  0
   12.0095   -6.7617    0.0000 N   0  0
   11.9928   -7.5822    0.0000 N   0  0
   11.2306   -6.4869    0.0000 C   0  0
    9.9062   -7.1324    0.0000 C   0  0
    8.6568   -7.8196    0.0000 C   0  0
    8.6193   -9.2523    0.0000 N   0  0
    9.4814   -7.8363    0.0000 N   0  0
    8.2236   -8.5276    0.0000 C   0  0
   11.2015   -7.8238    0.0000 C   0  0
    9.5938  -10.1644    0.0000 N   0  0
   12.6842   -6.2911    0.0000 C   0  0
    8.2569   -7.0949    0.0000 C   0  0
    9.4397   -9.3565    0.0000 C   0  0
    7.4364   -7.0783    0.0000 C   0  0
    7.3990   -8.5068    0.0000 C   0  0
   12.6175   -5.4706    0.0000 N   0  0
    7.0408   -6.3536    0.0000 C   0  0
    8.2694   -9.9937    0.0000 C   0  0
    8.8692  -10.5601    0.0000 C   0  0
    6.2161   -6.3328    0.0000 N   0  0
    9.5106   -6.4077    0.0000 O   0  0
    7.0033   -7.7821    0.0000 C   0  0
    5.8246   -5.6081    0.0000 O   0  0
   13.4297   -6.6451    0.0000 C   0  0
   13.2881   -5.0000    0.0000 C   0  0
    7.4739   -5.6497    0.0000 C   0  0
    5.0000   -5.5872    0.0000 C   0  0
   14.1086   -6.1745    0.0000 C   0  0
   14.0419   -5.3499    0.0000 C   0  0
  2  4  1  0
  3 10  2  0
  4  1  2  0
  5  1  1  0
  6  8  1  0
  7  9  1  0
  8  5  1  0
  9  6  1  0
 10  1  1  0
 11 14  2  0
 12  2  1  0
 13  6  2  0
 14  7  1  0
 15 13  1  0
 16  9  2  0
 17 12  1  0
 18 15  1  0
 19  7  1  0
 20 19  2  0
 21 18  2  0
 22  5  2  0
 23 15  2  0
 24 21  1  0
 25 12  2  0
 26 17  2  0
 27 18  1  0
 28 24  1  0
 29 25  1  0
 30 26  1  0
  2  3  1  0
 30 29  2  0
 16 23  1  0
 11 20  1  0
M  END
> <COMPOUND_ID>
DNDI2036455

$$$$

  SciTegic10251309232D

 26 29  0  0  0  0            999 V2000
   10.7101   -6.7131    0.0000 C   0  0
   11.4645   -7.0465    0.0000 N   0  0
   10.7893   -5.8920    0.0000 S   0  0
    7.8592   -8.3719    0.0000 N   0  0
   12.0105   -6.4296    0.0000 C   0  0
    7.8592   -9.1972    0.0000 C   0  0
   11.5979   -5.7169    0.0000 C   0  0
    9.9974   -7.1298    0.0000 C   0  0
    8.5720   -7.9593    0.0000 C   0  0
    7.1423   -7.9634    0.0000 C   0  0
    7.1465   -9.6140    0.0000 O   0  0
    5.7127   -9.6223    0.0000 N   0  0
    6.4296   -8.3802    0.0000 C   0  0
    9.2722   -6.7214    0.0000 C   0  0
    9.9974   -7.9551    0.0000 C   0  0
    8.5636   -7.1382    0.0000 C   0  0
    9.2847   -8.3719    0.0000 C   0  0
    6.4296   -9.2097    0.0000 C   0  0
    8.5761   -9.6098    0.0000 C   0  0
   12.8316   -6.4296    0.0000 C   0  0
   12.0022   -5.0042    0.0000 C   0  0
    5.0000   -9.2097    0.0000 C   0  0
    5.7127   -7.9676    0.0000 C   0  0
    5.0000   -8.3802    0.0000 C   0  0
   12.8233   -5.0000    0.0000 C   0  0
   13.2401   -5.7127    0.0000 C   0  0
  2  1  2  0
  3  1  1  0
  4  9  1  0
  5  2  1  0
  6  4  1  0
  7  3  1  0
  8  1  1  0
  9 16  1  0
 10  4  1  0
 11  6  2  0
 12 18  2  0
 13 10  1  0
 14  8  1  0
 15  8  2  0
 16 14  2  0
 17 15  1  0
 18 13  1  0
 19  6  1  0
 20  5  1  0
 21  7  1  0
 22 24  2  0
 23 13  2  0
 24 23  1  0
 25 21  2  0
 26 20  2  0
  5  7  2  0
 17  9  2  0
 25 26  1  0
 12 22  1  0
M  END
> <COMPOUND_ID>
DNDI2036476

$$$$

  SciTegic10251309232D

 28 31  0  0  0  0            999 V2000
    7.8602   -7.4766    0.0000 S   0  0
   10.7163   -6.6469    0.0000 C   0  0
   10.8080   -7.4641    0.0000 N   0  0
    7.8602   -6.6511    0.0000 N   0  0
   11.4709   -6.3050    0.0000 S   0  0
    9.9991   -6.2341    0.0000 C   0  0
    8.5732   -6.2383    0.0000 C   0  0
   11.6127   -7.6309    0.0000 C   0  0
    9.2862   -6.6511    0.0000 C   0  0
   12.0255   -6.9179    0.0000 C   0  0
    8.6858   -7.4725    0.0000 O   0  0
    7.0347   -7.4725    0.0000 O   0  0
    7.1431   -6.2425    0.0000 C   0  0
    9.2737   -5.0000    0.0000 N   0  0
    5.7130   -7.9019    0.0000 N   0  0
    6.4301   -6.6594    0.0000 C   0  0
    7.8561   -8.2980    0.0000 C   0  0
    9.9991   -5.4086    0.0000 C   0  0
    8.5649   -5.4169    0.0000 C   0  0
    6.4301   -7.4891    0.0000 C   0  0
   12.0255   -8.3397    0.0000 C   0  0
   12.8427   -6.9137    0.0000 C   0  0
    5.0000   -7.4891    0.0000 C   0  0
    5.7130   -6.2466    0.0000 C   0  0
    7.1347   -8.7066    0.0000 C   0  0
    5.0000   -6.6594    0.0000 C   0  0
   13.2596   -7.6225    0.0000 C   0  0
   12.8469   -8.3397    0.0000 C   0  0
  2  6  1  0
  3  2  2  0
  4  1  1  0
  5  2  1  0
  6  9  1  0
  7  4  1  0
  8  3  1  0
  9  7  2  0
 10  5  1  0
 11  1  2  0
 12  1  2  0
 13  4  1  0
 14 19  2  0
 15 20  2  0
 16 13  1  0
 17  1  1  0
 18  6  2  0
 19  7  1  0
 20 16  1  0
 21  8  1  0
 22 10  1  0
 23 26  2  0
 24 16  2  0
 25 17  1  0
 26 24  1  0
 27 22  2  0
 28 21  2  0
 14 18  1  0
 15 23  1  0
  8 10  2  0
 27 28  1  0
M  END
> <COMPOUND_ID>
DNDI2037315

$$$$

  SciTegic10251309232D

 25 28  0  0  0  0            999 V2000
    8.4436   -8.7143    0.0000 C   0  0
    9.1141   -9.2015    0.0000 S   0  0
    8.8559   -9.9843    0.0000 C   0  0
    8.0314   -9.9843    0.0000 N   0  0
    8.4436   -7.8898    0.0000 C   0  0
    7.7774   -9.2015    0.0000 C   0  0
    6.2992   -6.6531    0.0000 N   0  0
    7.7274   -7.4776    0.0000 N   0  0
    7.7274   -6.6531    0.0000 C   0  0
    5.0000   -6.9279    0.0000 N   0  0
    7.0154   -6.2409    0.0000 C   0  0
    5.5538   -6.3158    0.0000 C   0  0
    6.2201   -7.4734    0.0000 C   0  0
    5.4122   -7.6441    0.0000 C   0  0
    9.1557   -7.4776    0.0000 O   0  0
    9.3431  -10.6547    0.0000 C   0  0
    8.4436   -6.2409    0.0000 C   0  0
    7.0154   -5.4122    0.0000 C   0  0
    9.0016  -11.4043    0.0000 C   0  0
   10.1551  -10.5631    0.0000 C   0  0
    8.4436   -5.4122    0.0000 C   0  0
    7.7274   -5.0000    0.0000 C   0  0
   10.6422  -11.2294    0.0000 C   0  0
    9.4847  -12.0705    0.0000 C   0  0
   10.3091  -11.9872    0.0000 C   0  0
  2  1  1  0
  3  2  1  0
  4  6  1  0
  5  1  1  0
  6  1  2  0
  7 11  1  0
  8  5  1  0
  9  8  1  0
 10 12  2  0
 11  9  1  0
 12  7  1  0
 13  7  1  0
 14 13  2  0
 15  5  2  0
 16  3  1  0
 17  9  2  0
 18 11  2  0
 19 16  2  0
 20 16  1  0
 21 17  1  0
 22 18  1  0
 23 20  2  0
 24 19  1  0
 25 23  1  0
  3  4  2  0
 25 24  2  0
 22 21  2  0
 14 10  1  0
M  END
> <COMPOUND_ID>
DNDI2037331

$$$$

  SciTegic10251309232D

 26 29  0  0  0  0            999 V2000
    8.4450   -7.8909    0.0000 C   0  0
    6.2997   -6.6537    0.0000 N   0  0
    7.7285   -7.4785    0.0000 N   0  0
    8.4450   -8.7157    0.0000 C   0  0
    8.4450  -10.3612    0.0000 C   0  0
    7.7285   -9.9488    0.0000 N   0  0
    9.1615   -9.9446    0.0000 N   0  0
    7.7285   -6.6537    0.0000 C   0  0
    5.0000   -6.9287    0.0000 N   0  0
    7.0162   -6.2413    0.0000 C   0  0
    5.5540   -6.3163    0.0000 C   0  0
    7.7285   -9.1240    0.0000 C   0  0
    9.1573   -9.1240    0.0000 C   0  0
    6.2205   -7.4744    0.0000 C   0  0
    5.4124   -7.6452    0.0000 C   0  0
    9.1573   -7.4785    0.0000 O   0  0
    8.4450  -11.1818    0.0000 C   0  0
    8.4450   -6.2413    0.0000 C   0  0
    7.0162   -5.4124    0.0000 C   0  0
    7.7285  -11.5942    0.0000 C   0  0
    9.1573  -11.5900    0.0000 C   0  0
    8.4450   -5.4124    0.0000 C   0  0
    7.7285   -5.0000    0.0000 C   0  0
    9.1615  -12.4148    0.0000 C   0  0
    7.7285  -12.4190    0.0000 C   0  0
    8.4450  -12.8314    0.0000 C   0  0
  2 10  1  0
  3  1  1  0
  4  1  1  0
  5  7  1  0
  6 12  1  0
  7 13  2  0
  8  3  1  0
  9 11  2  0
 10  8  1  0
 11  2  1  0
 12  4  2  0
 13  4  1  0
 14  2  1  0
 15 14  2  0
 16  1  2  0
 17  5  1  0
 18  8  2  0
 19 10  2  0
 20 17  2  0
 21 17  1  0
 22 18  1  0
 23 19  1  0
 24 21  2  0
 25 20  1  0
 26 24  1  0
  5  6  2  0
 23 22  2  0
 15  9  1  0
 26 25  2  0
M  END
> <COMPOUND_ID>
DNDI2037332

$$$$

  SciTegic10251309232D

 30 33  0  0  0  0            999 V2000
    8.6246  -10.7843    0.0000 C   0  0
    7.9083   -8.7229    0.0000 C   0  0
    8.6246   -9.9597    0.0000 C   0  0
    9.2950  -11.2715    0.0000 C   0  0
    9.0368  -12.0544    0.0000 C   0  0
    7.9583  -11.2715    0.0000 S   0  0
    6.4799   -8.7229    0.0000 N   0  0
    7.9083   -9.5474    0.0000 N   0  0
    7.1962   -8.3106    0.0000 C   0  0
    8.2123  -12.0544    0.0000 C   0  0
    5.1807   -8.9978    0.0000 N   0  0
    8.6246   -8.3106    0.0000 C   0  0
    5.7345   -8.3856    0.0000 C   0  0
    8.6246   -7.4819    0.0000 C   0  0
    7.1962   -7.4819    0.0000 C   0  0
    9.3367   -7.0655    0.0000 C   0  0
    6.4008   -9.5433    0.0000 C   0  0
    5.5929   -9.7140    0.0000 C   0  0
    9.3325   -6.2410    0.0000 N   0  0  3  0  0  0
    9.3367   -9.5474    0.0000 O   0  0
    7.9083   -7.0697    0.0000 C   0  0
    9.5241  -12.7248    0.0000 C   0  0
   10.0446   -5.8245    0.0000 O   0  0
   10.0529   -7.4736    0.0000 C   0  0
    9.1826  -13.4744    0.0000 C   0  0
   10.3361  -12.6332    0.0000 C   0  0
   10.0404   -5.0000    0.0000 C   0  0
   10.8233  -13.2995    0.0000 C   0  0
    9.6657  -14.1407    0.0000 C   0  0
   10.4902  -14.0574    0.0000 C   0  0
  2  8  1  0
  3  1  1  0
  4  1  2  0
  5  4  1  0
  6  1  1  0
  7  9  1  0
  8  3  1  0
  9  2  1  0
 10  6  1  0
 11 13  2  0
 12  2  2  0
 13  7  1  0
 14 12  1  0
 15  9  2  0
 16 14  1  0
 17  7  1  0
 18 17  2  0
 19 16  2  0
 20  3  2  0
 21 15  1  0
 22  5  1  0
 19 23  1  4
 24 16  1  0
 25 22  2  0
 26 22  1  0
 27 23  1  0
 28 26  2  0
 29 25  1  0
 30 28  1  0
  5 10  2  0
 30 29  2  0
 21 14  2  0
 18 11  1  0
M  END
> <COMPOUND_ID>
DNDI2037340

$$$$

  SciTegic10251309232D

 26 29  0  0  0  0            999 V2000
   10.7236   -7.4803    0.0000 C   0  0
   10.8111   -8.2974    0.0000 N   0  0
   11.4781   -7.1385    0.0000 S   0  0
   10.0065   -7.0676    0.0000 C   0  0
    8.5767   -7.0676    0.0000 C   0  0
   11.6198   -8.4641    0.0000 C   0  0
   12.0325   -7.7513    0.0000 C   0  0
    7.8597   -7.4803    0.0000 N   0  0
    9.2895   -7.4803    0.0000 C   0  0
    8.5767   -6.2381    0.0000 C   0  0
   10.0065   -6.2381    0.0000 C   0  0
    9.2895   -5.8254    0.0000 C   0  0
    7.1469   -7.0676    0.0000 C   0  0
    5.7212   -8.7142    0.0000 N   0  0
    6.4298   -7.4803    0.0000 C   0  0
    9.2854   -5.0000    0.0000 F   0  0
    6.4340   -8.3016    0.0000 C   0  0
    7.8597   -8.3057    0.0000 C   0  0
   12.0325   -9.1728    0.0000 C   0  0
   12.8496   -7.7471    0.0000 C   0  0
    5.0000   -8.3016    0.0000 C   0  0
    5.7170   -7.0635    0.0000 C   0  0
    8.5767   -8.7184    0.0000 C   0  0
    5.0042   -7.4762    0.0000 C   0  0
   12.8537   -9.1728    0.0000 C   0  0
   13.2623   -8.4558    0.0000 C   0  0
  2  1  2  0
  3  1  1  0
  4  1  1  0
  5  9  1  0
  6  2  1  0
  7  3  1  0
  8  5  1  0
  9  4  2  0
 10 12  1  0
 11  4  1  0
 12 11  2  0
 13  8  1  0
 14 17  2  0
 15 13  1  0
 16 12  1  0
 17 15  1  0
 18  8  1  0
 19  6  1  0
 20  7  1  0
 21 24  2  0
 22 15  2  0
 23 18  1  0
 24 22  1  0
 25 19  2  0
 26 20  2  0
  6  7  2  0
 26 25  1  0
  5 10  2  0
 14 21  1  0
M  END
> <COMPOUND_ID>
DNDI2038160

$$$$

  SciTegic10251309232D

 29 33  0  0  0  0            999 V2000
   10.7246   -7.4808    0.0000 C   0  0
   10.8122   -8.2980    0.0000 N   0  0
    7.8602   -7.4808    0.0000 N   0  0
    7.8602   -8.3064    0.0000 C   0  0
   11.4793   -7.1389    0.0000 S   0  0
    8.5774   -7.0680    0.0000 C   0  0
   10.0075   -7.0680    0.0000 C   0  0
    8.5774   -8.7191    0.0000 C   0  0
   11.6211   -8.4648    0.0000 C   0  0
   12.0338   -7.7518    0.0000 C   0  0
    9.2903   -7.4808    0.0000 C   0  0
    8.9901   -9.4321    0.0000 C   0  0
    9.4029   -8.7191    0.0000 C   0  0
    8.5774   -6.2383    0.0000 C   0  0
    7.1473   -7.0680    0.0000 C   0  0
    7.1473   -8.7191    0.0000 O   0  0
   10.0075   -6.2383    0.0000 C   0  0
    9.2903   -5.8255    0.0000 C   0  0
    5.7213   -8.7150    0.0000 N   0  0
    6.4301   -7.4808    0.0000 C   0  0
    9.2862   -5.0000    0.0000 F   0  0
    6.4301   -8.3064    0.0000 C   0  0
   12.0338   -9.1736    0.0000 C   0  0
   12.8510   -7.7477    0.0000 C   0  0
    5.0000   -8.3022    0.0000 C   0  0
    5.7171   -7.0639    0.0000 C   0  0
    5.0042   -7.4766    0.0000 C   0  0
   12.8552   -9.1736    0.0000 C   0  0
   13.2638   -8.4565    0.0000 C   0  0
  2  1  2  0
  3  6  1  0
  4  3  1  0
  5  1  1  0
  6 11  1  0
  7  1  1  0
  8  4  1  0
  9  2  1  0
 10  5  1  0
 11  7  2  0
 12  8  1  0
 13  8  1  0
 14 18  1  0
 15  3  1  0
 16  4  2  0
 17  7  1  0
 18 17  2  0
 19 22  2  0
 20 15  1  0
 21 18  1  0
 22 20  1  0
 23  9  1  0
 24 10  1  0
 25 19  1  0
 26 20  2  0
 27 26  1  0
 28 23  2  0
 29 24  2  0
  9 10  2  0
 29 28  1  0
  6 14  2  0
 12 13  1  0
 25 27  2  0
M  END
> <COMPOUND_ID>
DNDI2038162

$$$$

  SciTegic10251309232D

 31 34  0  0  0  0            999 V2000
    8.7042   -8.8267    0.0000 N   0  0
    8.2959   -8.1100    0.0000 C   0  0
    8.7126   -7.3934    0.0000 C   0  0
    9.6959   -9.7184    0.0000 N   0  0
    9.5292   -8.9142    0.0000 C   0  0
    7.4750   -6.6767    0.0000 C   0  0
    8.2959   -6.6767    0.0000 C   0  0
    7.4709   -8.1059    0.0000 C   0  0
    7.0625   -5.9600    0.0000 C   0  0
    8.3709   -9.5767    0.0000 C   0  0
    8.9792  -10.1309    0.0000 C   0  0
    6.2375   -5.9600    0.0000 N   0  0
    7.0625   -7.3892    0.0000 C   0  0
    9.5376   -7.3975    0.0000 N   0  0
    5.8250   -5.2475    0.0000 O   0  0
    7.4750   -5.2475    0.0000 C   0  0
    5.0000   -5.2475    0.0000 C   0  0
    9.9459   -6.6809    0.0000 C   0  0
   10.7709   -6.6761    0.0000 C   0  0
    9.5293   -5.9687    0.0000 O   0  0
   11.2628   -7.3384    0.0000 S   0  0
   12.0460   -7.0790    0.0000 C   0  0
   12.0413   -6.2540    0.0000 N   0  0
   11.2552   -6.0036    0.0000 C   0  0
   10.9963   -5.2203    0.0000 C   0  0
   12.7162   -7.5601    0.0000 C   0  0
   12.6324   -8.3819    0.0000 C   0  0
   13.3018   -8.8628    0.0000 C   0  0
   14.0545   -8.5230    0.0000 C   0  0
   14.1339   -7.6975    0.0000 C   0  0
   13.4635   -7.2202    0.0000 C   0  0
  2  1  1  0
  3  2  2  0
  4  5  2  0
  5  1  1  0
  6  7  2  0
  7  3  1  0
  8  2  1  0
  9  6  1  0
 10  1  1  0
 11 10  2  0
 12  9  2  0
 13  8  2  0
 14  3  1  0
 15 12  1  0
 16  9  1  0
  4 11  1  0
 13  6  1  0
 15 17  1  0
 14 18  1  0
 18 19  1  0
 18 20  2  0
 19 21  1  0
 21 22  1  0
 22 23  2  0
 23 24  1  0
 24 19  2  0
 24 25  1  0
 22 26  1  0
 26 27  2  0
 27 28  1  0
 28 29  2  0
 29 30  1  0
 30 31  2  0
 31 26  1  0
M  END
> <COMPOUND_ID>
DNDI2038206

$$$$

  SciTegic10251309232D

 29 31  0  0  0  0            999 V2000
   14.4315    1.7908    0.0000 Cl  0  0
    2.5889    0.0182    0.0000 C   0  0
    1.7138   -1.2033    0.0000 N   0  0
    1.7138    1.2033    0.0000 S   0  0
    6.4199    1.1671    0.0000 C   0  0
    7.2602    2.4107    0.0000 N   0  0
    4.0896    0.0290    0.0000 C   0  0
    0.2917   -0.7475    0.0000 C   0  0
    6.6058    3.7613    0.0000 C   0  0
    0.2917    0.7475    0.0000 C   0  0
    4.9234    1.2700    0.0000 C   0  0
    7.0791   -0.1803    0.0000 C   0  0
    8.7573    2.3056    0.0000 C   0  0
    4.7453   -1.3220    0.0000 C   0  0
    6.2418   -1.4248    0.0000 C   0  0
    5.4089    3.8477    0.0000 O   0  0
   11.9315    4.6909    0.0000 N   0  0
    9.5977    3.5492    0.0000 C   0  0
    6.7691   -2.5027    0.0000 F   0  0
    6.9242    6.0838    0.0000 N   0  0
    7.4475    5.0039    0.0000 C   0  0
   11.0942    3.4464    0.0000 C   0  0
   -1.0028   -1.5132    0.0000 C   0  0
   -1.0028    1.5132    0.0000 C   0  0
   11.2723    6.0384    0.0000 C   0  0
    8.9385    4.8967    0.0000 C   0  0
    9.7759    6.1412    0.0000 C   0  0
   -2.3155    0.7475    0.0000 C   0  0
   -2.3155   -0.7475    0.0000 C   0  0
  3  2  2  0
  4  2  1  0
  5 11  2  0
  6  5  1  0
  7  2  1  0
  8  3  1  0
  9  6  1  0
 10  4  1  0
 11  7  1  0
 12 15  2  0
 13  6  1  0
 14  7  2  0
 15 14  1  0
 16  9  2  0
 17 22  2  0
 18 13  1  0
 19 15  1  0
 20 21  1  0
 21  9  1  0
 22 18  1  0
 23  8  1  0
 24 10  1  0
 25 27  2  0
 26 18  2  0
 27 26  1  0
 28 24  2  0
 29 23  2  0
  8 10  2  0
 28 29  1  0
  5 12  1  0
 17 25  1  0
M  END
> <COMPOUND_ID>
DNDI2039091-24

$$$$

  SciTegic10251309232D

 27 30  0  0  0  0            999 V2000
    6.4213   -9.1930    0.0000 S   0  0
    9.2847   -6.7047    0.0000 C   0  0
    9.3680   -5.8837    0.0000 N   0  0
   10.0391   -7.0423    0.0000 S   0  0
    6.4254   -8.3678    0.0000 N   0  0
   10.1766   -5.7128    0.0000 C   0  0
   10.5892   -6.4255    0.0000 C   0  0
    8.5719   -7.1257    0.0000 C   0  0
    5.5960   -9.1805    0.0000 O   0  0
    7.2465   -9.1888    0.0000 O   0  0
    7.1382   -7.9551    0.0000 C   0  0
    5.7127   -7.9551    0.0000 C   0  0
    5.0000   -5.8962    0.0000 N   0  0
    5.7127   -7.1299    0.0000 C   0  0
    7.8509   -6.7131    0.0000 C   0  0
    8.5719   -7.9551    0.0000 C   0  0
    7.8509   -8.3678    0.0000 C   0  0
    7.1382   -7.1257    0.0000 C   0  0
    6.4129  -10.0141    0.0000 C   0  0
    5.0000   -6.7172    0.0000 C   0  0
   10.5851   -5.0042    0.0000 C   0  0
   11.4103   -6.4255    0.0000 C   0  0
    5.7169   -5.4794    0.0000 C   0  0
    6.4296   -6.7172    0.0000 C   0  0
    6.4296   -5.8962    0.0000 C   0  0
   11.4062   -5.0000    0.0000 C   0  0
   11.8230   -5.7128    0.0000 C   0  0
  2  8  1  0
  3  2  2  0
  4  2  1  0
  5  1  1  0
  6  3  1  0
  7  4  1  0
  8 15  2  0
  9  1  2  0
 10  1  2  0
 11  5  1  0
 12  5  1  0
 13 20  2  0
 14 12  1  0
 15 18  1  0
 16 17  2  0
 17 11  1  0
 18 11  2  0
 19  1  1  0
 20 14  1  0
 21  6  1  0
 22  7  1  0
 23 13  1  0
 24 14  2  0
 25 24  1  0
 26 21  2  0
 27 22  2  0
 16  8  1  0
 23 25  2  0
  7  6  2  0
 26 27  1  0
M  END
> <COMPOUND_ID>
DNDI2043995

$$$$

  SciTegic10251309232D

 25 28  0  0  0  0            999 V2000
    9.2843   -6.7046    0.0000 C   0  0
    9.3677   -5.8836    0.0000 N   0  0
   10.0387   -7.0422    0.0000 S   0  0
   10.1762   -5.7127    0.0000 C   0  0
   10.5888   -6.4254    0.0000 C   0  0
    6.4212   -8.3633    0.0000 N   0  0
    8.5717   -7.1214    0.0000 C   0  0
    7.1422   -7.9549    0.0000 C   0  0
    5.7085   -7.9549    0.0000 C   0  0
    5.0000   -5.8961    0.0000 N   0  0
    7.8548   -6.7088    0.0000 C   0  0
    8.5717   -7.9549    0.0000 C   0  0
    5.7127   -7.1297    0.0000 C   0  0
    7.1422   -7.1214    0.0000 C   0  0
    7.8548   -8.3633    0.0000 C   0  0
    5.0000   -6.7171    0.0000 C   0  0
    6.4212   -9.1927    0.0000 C   0  0
   10.5846   -5.0042    0.0000 C   0  0
   11.4098   -6.4254    0.0000 C   0  0
    5.7168   -5.4793    0.0000 C   0  0
    6.4295   -6.7171    0.0000 C   0  0
    5.7085   -9.6011    0.0000 C   0  0
    6.4295   -5.8961    0.0000 C   0  0
   11.4057   -5.0000    0.0000 C   0  0
   11.8224   -5.7127    0.0000 C   0  0
  2  1  2  0
  3  1  1  0
  4  2  1  0
  5  3  1  0
  6  8  1  0
  7  1  1  0
  8 14  2  0
  9  6  1  0
 10 16  2  0
 11  7  2  0
 12  7  1  0
 13  9  1  0
 14 11  1  0
 15 12  2  0
 16 13  1  0
 17  6  1  0
 18  4  1  0
 19  5  1  0
 20 10  1  0
 21 13  2  0
 22 17  1  0
 23 21  1  0
 24 18  2  0
 25 19  2  0
  5  4  2  0
  8 15  1  0
 24 25  1  0
 20 23  2  0
M  END
> <COMPOUND_ID>
DNDI2043997

$$$$

  SciTegic10251309232D

 24 26  0  0  0  0            999 V2000
    8.5703   -7.4913    0.0000 C   0  0
    7.8579   -7.9038    0.0000 N   0  0
    8.5620   -6.6706    0.0000 C   0  0
    9.2744   -6.2540    0.0000 C   0  0
    9.9951   -6.6623    0.0000 C   0  0
    9.2827   -7.9038    0.0000 C   0  0
    7.1414   -7.4955    0.0000 C   0  0
   10.7034   -6.2457    0.0000 C   0  0
    9.9951   -7.4872    0.0000 C   0  0
    5.7124   -9.1536    0.0000 N   0  0
    6.4290   -7.9121    0.0000 C   0  0
   11.4199   -6.6581    0.0000 C   0  0
   10.6950   -5.4250    0.0000 C   0  0
    7.8454   -6.2623    0.0000 F   0  0
   12.1282   -5.4166    0.0000 C   0  0
   12.1323   -6.2415    0.0000 C   0  0
   11.4033   -5.0084    0.0000 C   0  0
   12.8364   -5.0000    0.0000 F   0  0
    6.4290   -8.7412    0.0000 C   0  0
    7.8579   -8.7287    0.0000 C   0  0
    5.0000   -8.7412    0.0000 C   0  0
    5.7124   -7.4997    0.0000 C   0  0
    8.5745   -9.1411    0.0000 C   0  0
    5.0000   -7.9121    0.0000 C   0  0
  2  1  1  0
  3  1  1  0
  4  3  2  0
  5  4  1  0
  6  1  2  0
  7  2  1  0
  8  5  1  0
  9  6  1  0
 10 19  2  0
 11  7  1  0
 12  8  2  0
 13  8  1  0
 14  3  1  0
 15 17  1  0
 16 12  1  0
 17 13  2  0
 18 15  1  0
 19 11  1  0
 20  2  1  0
 21 24  2  0
 22 11  2  0
 23 20  1  0
 24 22  1  0
  5  9  2  0
 10 21  1  0
 15 16  2  0
M  END
> <COMPOUND_ID>
DNDI2084885

$$$$

  SciTegic10251309232D

 25 27  0  0  0  0            999 V2000
    7.8579   -7.9037    0.0000 N   0  0
    8.5703   -7.4913    0.0000 C   0  0
    8.5619   -6.6706    0.0000 C   0  0
    7.8579   -8.7286    0.0000 C   0  0
    9.2702   -6.2539    0.0000 C   0  0
    9.9951   -6.6622    0.0000 C   0  0
    9.2827   -7.9037    0.0000 C   0  0
    7.1413   -7.4954    0.0000 C   0  0
   10.7033   -6.2456    0.0000 C   0  0
    9.9951   -7.4871    0.0000 C   0  0
    7.1455   -9.1452    0.0000 O   0  0
    5.7124   -9.1535    0.0000 N   0  0
    6.4289   -7.9120    0.0000 C   0  0
   10.6950   -5.4249    0.0000 C   0  0
   11.4198   -6.6581    0.0000 C   0  0
    7.8454   -6.2623    0.0000 F   0  0
   12.1281   -5.4166    0.0000 C   0  0
   11.4032   -5.0083    0.0000 C   0  0
   12.1322   -6.2415    0.0000 C   0  0
   12.8363   -5.0000    0.0000 F   0  0
    6.4289   -8.7411    0.0000 C   0  0
    8.5744   -9.1410    0.0000 C   0  0
    5.0000   -8.7411    0.0000 C   0  0
    5.7124   -7.4996    0.0000 C   0  0
    5.0000   -7.9120    0.0000 C   0  0
  2  1  1  0
  3  2  1  0
  4  1  1  0
  5  3  2  0
  6 10  2  0
  7  2  2  0
  8  1  1  0
  9  6  1  0
 10  7  1  0
 11  4  2  0
 12 21  2  0
 13  8  1  0
 14  9  1  0
 15  9  2  0
 16  3  1  0
 17 18  1  0
 18 14  2  0
 19 15  1  0
 20 17  1  0
 21 13  1  0
 22  4  1  0
 23 25  2  0
 24 13  2  0
 25 24  1  0
  5  6  1  0
 12 23  1  0
 17 19  2  0
M  END
> <COMPOUND_ID>
DNDI2084886

$$$$

  SciTegic10251309232D

 26 29  0  0  0  0            999 V2000
    6.3839   -9.1934    0.0000 S   0  0
    9.2434   -6.7090    0.0000 C   0  0
    9.3226   -5.8920    0.0000 N   0  0
    9.9978   -7.0467    0.0000 S   0  0
    6.3839   -8.3680    0.0000 N   0  0
    5.6711   -7.1300    0.0000 C   0  0
   10.1312   -5.7170    0.0000 C   0  0
    6.0838   -5.8587    0.0000 N   0  0
    5.6711   -7.9554    0.0000 C   0  0
   10.5439   -6.4298    0.0000 C   0  0
    5.0000   -6.6423    0.0000 N   0  0
    8.5306   -7.1259    0.0000 C   0  0
    5.2584   -5.8587    0.0000 C   0  0
    5.5544   -9.1850    0.0000 O   0  0
    7.2051   -9.1934    0.0000 O   0  0
    7.1008   -7.9554    0.0000 C   0  0
    6.3380   -6.6465    0.0000 C   0  0
    7.8136   -6.7132    0.0000 C   0  0
    8.5306   -7.9554    0.0000 C   0  0
    7.1008   -7.1300    0.0000 C   0  0
    7.8136   -8.3680    0.0000 C   0  0
    6.3797  -10.0187    0.0000 C   0  0
   10.5356   -5.0042    0.0000 C   0  0
   11.3651   -6.4256    0.0000 C   0  0
   11.7736   -5.7128    0.0000 C   0  0
   11.3567   -5.0000    0.0000 C   0  0
  2 12  1  0
  3  2  2  0
  4  2  1  0
  5  1  1  0
  6  9  1  0
  7  3  1  0
  8 17  1  0
  9  5  1  0
 10  4  1  0
 11  6  1  0
 12 19  1  0
 13 11  1  0
 14  1  2  0
 15  1  2  0
 16  5  1  0
 17  6  2  0
 18 20  1  0
 19 21  2  0
 20 16  2  0
 21 16  1  0
 22  1  1  0
 23  7  1  0
 24 10  1  0
 25 24  2  0
 26 23  2  0
 18 12  2  0
 13  8  2  0
 10  7  2  0
 26 25  1  0
M  END
> <COMPOUND_ID>
DNDI2084892

$$$$

  SciTegic10251309232D

 30 33  0  0  0  0            999 V2000
    8.6102  -10.7864    0.0000 C   0  0
    7.9437  -11.2738    0.0000 S   0  0
    8.1978  -12.0570    0.0000 C   0  0
    9.0226  -12.0570    0.0000 N   0  0
    8.6102   -9.9616    0.0000 C   0  0
    7.8937   -8.7243    0.0000 C   0  0
    6.4689   -8.7285    0.0000 N   0  0
    9.2809  -11.2738    0.0000 C   0  0
    7.8937   -9.5491    0.0000 N   0  0
    7.1813   -8.3119    0.0000 C   0  0
    5.1650   -9.0034    0.0000 N   0  0
    8.6102   -8.3119    0.0000 C   0  0
    5.7149   -8.3910    0.0000 C   0  0
    8.6102   -7.4828    0.0000 C   0  0
    7.1813   -7.4828    0.0000 C   0  0
    7.7187  -12.7236    0.0000 C   0  0
    9.3226   -7.0663    0.0000 C   0  0
    6.3815   -9.5491    0.0000 C   0  0
    5.5733   -9.7199    0.0000 C   0  0
    6.8980  -12.6361    0.0000 N   0  0
    9.3184   -6.2414    0.0000 N   0  0
    9.3226   -9.5491    0.0000 O   0  0
    7.8937   -7.0704    0.0000 C   0  0
   10.0308   -5.8248    0.0000 O   0  0
    6.4148  -13.3026    0.0000 C   0  0
   10.0391   -7.4745    0.0000 C   0  0
    8.0520  -13.4735    0.0000 C   0  0
   10.0266   -5.0000    0.0000 C   0  0
    6.7481  -14.0567    0.0000 C   0  0
    7.5729  -14.1400    0.0000 C   0  0
  2  1  1  0
  3  2  1  0
  4  8  1  0
  5  1  1  0
  6  9  1  0
  7 10  1  0
  8  1  2  0
  9  5  1  0
 10  6  1  0
 11 13  2  0
 12  6  2  0
 13  7  1  0
 14 12  1  0
 15 10  2  0
 16  3  1  0
 17 14  1  0
 18  7  1  0
 19 18  2  0
 20 16  2  0
 21 17  2  0
 22  5  2  0
 23 15  1  0
 24 21  1  0
 25 20  1  0
 26 17  1  0
 27 16  1  0
 28 24  1  0
 29 30  1  0
 30 27  2  0
  4  3  2  0
 23 14  2  0
 29 25  2  0
 19 11  1  0
M  END
> <COMPOUND_ID>
DNDI2084901

$$$$

  SciTegic10251309232D

 27 30  0  0  0  0            999 V2000
   10.7073   -7.8828    0.0000 C   0  0
    9.2784   -7.8870    0.0000 C   0  0
   11.4155   -6.6455    0.0000 N   0  0
    9.9949   -7.4745    0.0000 N   0  0
    8.5660   -7.4745    0.0000 C   0  0
   11.4197   -7.4704    0.0000 C   0  0
    8.5702   -6.6455    0.0000 C   0  0
    7.8578   -7.8870    0.0000 C   0  0
   11.8196   -5.3749    0.0000 N   0  0
   12.0779   -6.1581    0.0000 C   0  0
    7.1413   -6.6497    0.0000 C   0  0
   12.1362   -7.8828    0.0000 C   0  0
   10.7406   -6.1623    0.0000 C   0  0
    7.8537   -6.2373    0.0000 N   0  0
    7.1413   -7.4787    0.0000 N   0  0
   10.7073   -8.7118    0.0000 C   0  0
   10.9948   -5.3791    0.0000 C   0  0
    9.2784   -8.7118    0.0000 O   0  0
    6.4247   -6.2373    0.0000 C   0  0
   11.4197   -9.1242    0.0000 C   0  0
   12.1362   -8.7118    0.0000 C   0  0
    6.4289   -5.4124    0.0000 C   0  0
    5.7165   -6.6497    0.0000 C   0  0
   11.4197   -9.9491    0.0000 C   0  0
    5.7124   -5.0000    0.0000 C   0  0
    5.0042   -6.2456    0.0000 C   0  0
    5.0000   -5.4166    0.0000 C   0  0
  2  4  1  0
  3  6  1  0
  4  1  1  0
  5  2  1  0
  6  1  1  0
  7  5  2  0
  8  5  1  0
  9 10  2  0
 10  3  1  0
 11 14  2  0
 12  6  2  0
 13  3  1  0
 14  7  1  0
 15  8  2  0
 16  1  2  0
 17 13  2  0
 18  2  2  0
 19 11  1  0
 20 16  1  0
 21 12  1  0
 22 19  2  0
 23 19  1  0
 24 20  1  0
 25 22  1  0
 26 23  2  0
 27 26  1  0
 21 20  2  0
 17  9  1  0
 15 11  1  0
 27 25  2  0
M  END
> <COMPOUND_ID>
DNDI2084905

$$$$

  SciTegic10251309232D

 31 34  0  0  0  0            999 V2000
    8.6875   -7.4309    0.0000 C   0  0
   10.2250   -7.0225    0.0000 C   0  0
   10.9417   -7.4267    0.0000 C   0  0
    8.6667   -8.8600    0.0000 N   0  0
    9.5125   -7.4392    0.0000 N   0  0
    8.2625   -8.1392    0.0000 C   0  0
   10.9458   -8.2517    0.0000 N   0  0
   12.3625   -7.4059    0.0000 N   0  0
    9.6458   -9.7684    0.0000 N   0  0
    8.2792   -6.7059    0.0000 C   0  0
    9.4875   -8.9600    0.0000 C   0  0
    7.4583   -6.6975    0.0000 C   0  0
    7.4375   -8.1267    0.0000 C   0  0
   12.3750   -8.2350    0.0000 C   0  0
   11.6458   -7.0059    0.0000 C   0  0
    7.0542   -5.9767    0.0000 C   0  0
    8.3208   -9.6100    0.0000 C   0  0
    8.9250  -10.1725    0.0000 C   0  0
    6.2292   -5.9684    0.0000 N   0  0
   11.6625   -8.6559    0.0000 C   0  0
   10.2125   -6.1975    0.0000 O   0  0
    7.0375   -7.4017    0.0000 C   0  0
   13.0916   -8.6350    0.0000 C   0  0
    5.8250   -5.2475    0.0000 O   0  0
    7.4750   -5.2684    0.0000 C   0  0
   13.1000   -9.4642    0.0000 C   0  0
   13.8000   -8.2184    0.0000 C   0  0
    5.0000   -5.2392    0.0000 C   0  0
   14.5166   -8.6184    0.0000 C   0  0
   13.8208   -9.8684    0.0000 C   0  0
   14.5291   -9.4475    0.0000 C   0  0
  2  5  1  0
  3  2  1  0
  4  6  1  0
  5  1  1  0
  6  1  2  0
  7  3  2  0
  8 15  2  0
  9 11  2  0
 10  1  1  0
 11  4  1  0
 12 10  2  0
 13  6  1  0
 14  8  1  0
 15  3  1  0
 16 12  1  0
 17  4  1  0
 18 17  2  0
 19 16  2  0
 20  7  1  0
 21  2  2  0
 22 12  1  0
 23 14  1  0
 24 19  1  0
 25 16  1  0
 26 23  2  0
 27 23  1  0
 28 24  1  0
 29 27  2  0
 30 26  1  0
 31 29  1  0
 13 22  2  0
  9 18  1  0
 14 20  2  0
 31 30  2  0
M  END
> <COMPOUND_ID>
DNDI2154408

$$$$

  SciTegic10251309232D

 26 29  0  0  0  0            999 V2000
    8.7665   -7.1040    0.0000 C   0  0
    8.0123   -7.4373    0.0000 S   0  0
    8.6790   -6.2832    0.0000 C   0  0
    9.4789   -7.5165    0.0000 C   0  0
    7.4582   -6.8249    0.0000 C   0  0
   10.9080   -7.5165    0.0000 C   0  0
   11.6163   -6.2749    0.0000 N   0  0
   10.1956   -7.1040    0.0000 N   0  0
   11.6205   -7.0999    0.0000 C   0  0
    7.8707   -6.1124    0.0000 N   0  0
   12.0205   -5.0000    0.0000 N   0  0
   12.2788   -5.7874    0.0000 C   0  0
   12.3371   -7.5123    0.0000 C   0  0
   10.9455   -5.7916    0.0000 C   0  0
   10.9080   -8.3415    0.0000 C   0  0
   11.1997   -5.0041    0.0000 C   0  0
    9.4789   -8.3415    0.0000 O   0  0
    6.6374   -6.9124    0.0000 C   0  0
   11.6205   -8.7539    0.0000 C   0  0
   12.3371   -8.3415    0.0000 C   0  0
    6.1541   -6.2457    0.0000 C   0  0
    6.3083   -7.6665    0.0000 C   0  0
   11.6205   -9.5789    0.0000 C   0  0
    5.3375   -6.3332    0.0000 C   0  0
    5.4916   -7.7540    0.0000 C   0  0
    5.0000   -7.0874    0.0000 C   0  0
  2  1  1  0
  3  1  2  0
  4  1  1  0
  5  2  1  0
  6  8  1  0
  7  9  1  0
  8  4  1  0
  9  6  1  0
 10  3  1  0
 11 12  2  0
 12  7  1  0
 13  9  2  0
 14  7  1  0
 15  6  2  0
 16 14  2  0
 17  4  2  0
 18  5  1  0
 19 15  1  0
 20 19  2  0
 21 18  2  0
 22 18  1  0
 23 19  1  0
 24 21  1  0
 25 22  2  0
 26 25  1  0
  5 10  2  0
 13 20  1  0
 26 24  2  0
 16 11  1  0
M  END
> <COMPOUND_ID>
DNDI2154958

$$$$

  SciTegic10251309232D

 24 27  0  0  0  0            999 V2000
    9.2427   -6.7130    0.0000 C   0  0
    9.9971   -7.0422    0.0000 N   0  0
    9.3261   -5.8877    0.0000 S   0  0
    5.0000   -6.6463    0.0000 N   0  0
    5.6710   -7.1339    0.0000 C   0  0
   10.5430   -6.4295    0.0000 C   0  0
   10.1304   -5.7127    0.0000 C   0  0
    6.3837   -8.3717    0.0000 N   0  0
    8.5300   -7.1297    0.0000 C   0  0
    6.0836   -5.8627    0.0000 N   0  0
    5.2584   -5.8627    0.0000 C   0  0
    5.6710   -7.9591    0.0000 C   0  0
    7.1005   -7.9591    0.0000 C   0  0
    6.3378   -6.6504    0.0000 C   0  0
    8.5300   -7.9591    0.0000 C   0  0
    7.8132   -6.7171    0.0000 C   0  0
    7.8132   -8.3717    0.0000 C   0  0
    7.1005   -7.1339    0.0000 C   0  0
    6.3837   -9.1969    0.0000 C   0  0
   11.3641   -6.4295    0.0000 C   0  0
   10.5389   -5.0042    0.0000 C   0  0
    5.6710   -9.6095    0.0000 C   0  0
   11.3599   -5.0000    0.0000 C   0  0
   11.7767   -5.7169    0.0000 C   0  0
  2  1  2  0
  3  1  1  0
  4  5  1  0
  5 12  1  0
  6  2  1  0
  7  3  1  0
  8 13  1  0
  9  1  1  0
 10 14  1  0
 11  4  2  0
 12  8  1  0
 13 17  1  0
 14  5  2  0
 15  9  1  0
 16  9  2  0
 17 15  2  0
 18 16  1  0
 19  8  1  0
 20  6  1  0
 21  7  1  0
 22 19  1  0
 23 21  2  0
 24 20  2  0
  6  7  2  0
 13 18  2  0
 23 24  1  0
 11 10  1  0
M  END
> <COMPOUND_ID>
DNDI2154966

$$$$

  SciTegic10251309232D

 26 28  0  0  0  0            999 V2000
    7.8584   -8.7293    0.0000 S   0  0
    7.8584   -7.9042    0.0000 N   0  0
    8.5710   -7.4917    0.0000 C   0  0
    8.5626   -6.6709    0.0000 C   0  0
    9.2835   -7.9042    0.0000 C   0  0
    9.2752   -6.2542    0.0000 C   0  0
    9.9960   -6.6625    0.0000 C   0  0
    7.0292   -8.7209    0.0000 O   0  0
    8.6793   -8.7293    0.0000 O   0  0
    7.1417   -7.4959    0.0000 C   0  0
   10.7085   -6.2458    0.0000 C   0  0
    9.9960   -7.4876    0.0000 C   0  0
    5.7125   -9.1543    0.0000 N   0  0
    6.4292   -7.9126    0.0000 C   0  0
   11.4211   -6.6584    0.0000 C   0  0
   10.6960   -5.4250    0.0000 C   0  0
    7.8543   -9.5543    0.0000 C   0  0
    7.8459   -6.2625    0.0000 F   0  0
   12.1294   -5.4166    0.0000 C   0  0
   11.4044   -5.0083    0.0000 C   0  0
   12.1336   -6.2417    0.0000 C   0  0
   12.8378   -5.0000    0.0000 F   0  0
    6.4292   -8.7418    0.0000 C   0  0
    5.0000   -8.7418    0.0000 C   0  0
    5.7125   -7.5001    0.0000 C   0  0
    5.0000   -7.9167    0.0000 C   0  0
  2  1  1  0
  3  2  1  0
  4  3  1  0
  5  3  2  0
  6  4  2  0
  7  6  1  0
  8  1  2  0
  9  1  2  0
 10  2  1  0
 11  7  1  0
 12  5  1  0
 13 23  2  0
 14 10  1  0
 15 11  2  0
 16 11  1  0
 17  1  1  0
 18  4  1  0
 19 20  1  0
 20 16  2  0
 21 15  1  0
 22 19  1  0
 23 14  1  0
 24 26  2  0
 25 14  2  0
 26 25  1  0
  7 12  2  0
 13 24  1  0
 19 21  2  0
M  END
> <COMPOUND_ID>
DNDI2155104

$$$$

  SciTegic10251309232D

 25 28  0  0  0  0            999 V2000
    9.2431   -6.7131    0.0000 C   0  0
    9.9975   -7.0424    0.0000 N   0  0
    9.3265   -5.8878    0.0000 S   0  0
    6.3838   -8.3720    0.0000 N   0  0
    5.0000   -6.6464    0.0000 N   0  0
    5.6711   -7.1341    0.0000 C   0  0
   10.5435   -6.4297    0.0000 C   0  0
    6.3838   -9.1973    0.0000 C   0  0
   10.1309   -5.7128    0.0000 C   0  0
    8.5304   -7.1299    0.0000 C   0  0
    6.0837   -5.8628    0.0000 N   0  0
    5.6711   -7.9593    0.0000 C   0  0
    5.2584   -5.8628    0.0000 C   0  0
    7.1007   -7.9593    0.0000 C   0  0
    6.3379   -6.6506    0.0000 C   0  0
    7.1007   -9.6099    0.0000 O   0  0
    8.5304   -7.9593    0.0000 C   0  0
    7.8134   -6.7173    0.0000 C   0  0
    7.8134   -8.3720    0.0000 C   0  0
    7.1007   -7.1341    0.0000 C   0  0
    5.6711   -9.6099    0.0000 C   0  0
   11.3646   -6.4297    0.0000 C   0  0
   10.5394   -5.0042    0.0000 C   0  0
   11.3605   -5.0000    0.0000 C   0  0
   11.7731   -5.7169    0.0000 C   0  0
  2  1  2  0
  3  1  1  0
  4 14  1  0
  5  6  1  0
  6 12  1  0
  7  2  1  0
  8  4  1  0
  9  3  1  0
 10  1  1  0
 11 15  1  0
 12  4  1  0
 13  5  2  0
 14 20  2  0
 15  6  2  0
 16  8  2  0
 17 10  1  0
 18 10  2  0
 19 17  2  0
 20 18  1  0
 21  8  1  0
 22  7  1  0
 23  9  1  0
 24 23  2  0
 25 22  2  0
  7  9  2  0
 19 14  1  0
 24 25  1  0
 13 11  1  0
M  END
> <COMPOUND_ID>
DNDI2155110

$$$$

  SciTegic10251309232D

 25 28  0  0  0  0            999 V2000
    8.4504   -6.2388    0.0000 C   0  0
    8.4492   -7.0669    0.0000 C   0  0
    9.1646   -7.4801    0.0000 C   0  0
    9.8817   -7.0664    0.0000 C   0  0
    9.8789   -6.2352    0.0000 C   0  0
    9.1628   -5.8257    0.0000 C   0  0
   10.5980   -7.4757    0.0000 C   0  0
   10.6856   -8.2968    0.0000 N   0  0
   11.3518   -7.1387    0.0000 S   0  0
   11.9053   -7.7514    0.0000 C   0  0
   11.4951   -8.4644    0.0000 C   0  0
   11.9074   -9.1740    0.0000 C   0  0
   12.7298   -9.1718    0.0000 C   0  0
   13.1380   -8.4541    0.0000 C   0  0
   12.7234   -7.7475    0.0000 C   0  0
    7.7338   -7.4792    0.0000 N   0  0
    7.0190   -7.0658    0.0000 C   0  0
    7.7331   -8.3049    0.0000 C   0  0
    9.1604   -5.0000    0.0000 F   0  0
    8.4479   -8.7183    0.0000 C   0  0
    6.3036   -7.4781    0.0000 C   0  0
    5.5530   -7.1439    0.0000 N   0  0
    5.0000   -7.7571    0.0000 C   0  0
    5.4123   -8.4726    0.0000 N   0  0
    6.2201   -8.3014    0.0000 C   0  0
  1  2  2  0
  2  3  1  0
  3  4  2  0
  4  5  1  0
  5  6  2  0
  6  1  1  0
  7  8  2  0
  8 11  1  0
 10  9  1  0
  9  7  1  0
  4  7  1  0
 10 11  2  0
 11 12  1  0
 12 13  2  0
 13 14  1  0
 14 15  2  0
 15 10  1  0
  2 16  1  0
 16 17  1  0
 16 18  1  0
  6 19  1  0
 18 20  1  0
 17 21  1  0
 21 22  1  0
 22 23  1  0
 23 24  2  0
 24 25  1  0
 25 21  2  0
M  END
> <COMPOUND_ID>
DNDI2166092

$$$$

  SciTegic10251309232D

 27 30  0  0  0  0            999 V2000
    7.1473   -7.1305    0.0000 C   0  0
    7.1462   -7.9585    0.0000 C   0  0
    7.8615   -8.3718    0.0000 C   0  0
    8.5786   -7.9581    0.0000 C   0  0
    8.5757   -7.1269    0.0000 C   0  0
    7.8597   -6.7174    0.0000 C   0  0
    9.2892   -6.7113    0.0000 C   0  0
   10.0425   -7.0460    0.0000 S   0  0
    9.3702   -5.8916    0.0000 N   0  0
   10.1771   -5.7167    0.0000 C   0  0
   10.5898   -6.4295    0.0000 C   0  0
   11.4115   -6.4274    0.0000 C   0  0
   11.8215   -5.7134    0.0000 C   0  0
   11.4038   -5.0000    0.0000 C   0  0
   10.5834   -5.0055    0.0000 C   0  0
    6.4308   -8.3708    0.0000 N   0  0
    5.7160   -7.9574    0.0000 C   0  0
    5.7167   -7.1317    0.0000 C   0  0
    6.4301   -9.1965    0.0000 C   0  0
    5.7147   -9.6088    0.0000 C   0  0
    7.1448   -9.6099    0.0000 O   0  0
    5.0000   -9.1954    0.0000 N   0  0
    6.4346   -6.7241    0.0000 C   0  0
    6.4356   -5.8992    0.0000 C   0  0
    5.7203   -5.4849    0.0000 C   0  0
    5.0026   -5.9016    0.0000 N   0  0
    5.0051   -6.7252    0.0000 C   0  0
  1  2  2  0
  2  3  1  0
  3  4  2  0
  4  5  1  0
  5  6  2  0
  6  1  1  0
  5  7  1  0
  7  8  1  0
  8 11  1  0
 10  9  1  0
  9  7  2  0
 10 11  2  0
 11 12  1  0
 12 13  2  0
 13 14  1  0
 14 15  2  0
 15 10  1  0
  2 16  1  0
 16 17  1  0
 17 18  1  0
 16 19  1  0
 19 20  1  0
 19 21  2  0
 20 22  1  0
 18 23  2  0
 23 24  1  0
 24 25  2  0
 25 26  1  0
 26 27  2  0
 27 18  1  0
M  END
> <COMPOUND_ID>
DNDI2166104

$$$$

  SciTegic10251309232D

 25 27  0  0  0  0            999 V2000
    7.0951   -6.6620    0.0000 C   0  0
    7.0939   -7.4891    0.0000 C   0  0
    7.8085   -7.9019    0.0000 C   0  0
    8.5247   -7.4886    0.0000 C   0  0
    8.5219   -6.6584    0.0000 C   0  0
    7.8067   -6.2493    0.0000 C   0  0
    9.2346   -6.2433    0.0000 C   0  0
    9.9476   -6.6560    0.0000 C   0  0
   10.6598   -6.2416    0.0000 C   0  0
   10.6572   -5.4160    0.0000 C   0  0
    9.9364   -5.0065    0.0000 C   0  0
    9.2271   -5.4232    0.0000 C   0  0
   11.3693   -5.0000    0.0000 F   0  0
    7.8083   -8.7266    0.0000 F   0  0
    6.3793   -7.9009    0.0000 N   0  0
    5.6654   -7.4880    0.0000 C   0  0
    6.3787   -8.7257    0.0000 S   0  0
    7.2007   -8.7239    0.0000 O   0  0
    5.5511   -8.7197    0.0000 O   0  0
    6.3836   -9.5504    0.0000 C   0  0
    5.6661   -6.6632    0.0000 C   0  0
    6.3344   -6.1768    0.0000 N   0  0
    6.0802   -5.3922    0.0000 C   0  0
    5.2553   -5.3916    0.0000 N   0  0
    5.0000   -6.1758    0.0000 C   0  0
  1  2  2  0
  2  3  1  0
  3  4  2  0
  4  5  1  0
  5  6  2  0
  6  1  1  0
  5  7  1  0
  7  8  2  0
  8  9  1  0
  9 10  2  0
 10 11  1  0
 11 12  2  0
 12  7  1  0
 10 13  1  0
  3 14  1  0
  2 15  1  0
 15 16  1  0
 15 17  1  0
 17 18  2  0
 17 19  2  0
 17 20  1  0
 16 21  1  0
 21 22  1  0
 22 23  2  0
 23 24  1  0
 24 25  1  0
 25 21  2  0
M  END
> <COMPOUND_ID>
DNDI2166109

$$$$

  SciTegic10251309232D

 29 31  0  0  0  0            999 V2000
    0.2606    0.1503    0.0000 O   0  0
    1.3000    0.7500    0.0000 C   0  0
    2.3394    0.1503    0.0000 O   0  0
   14.4945   -2.0808    0.0000 C   0  0
   13.8353   -0.7334    0.0000 C   0  0
   12.3388   -0.6306    0.0000 C   0  0
   11.5051   -1.8715    0.0000 C   0  0
   12.1607   -3.2225    0.0000 C   0  0
   13.6572   -3.3254    0.0000 C   0  0
   10.0044   -1.8823    0.0000 C   0  0
   14.6705    0.5136    0.0000 N   0  0
   14.1845   -4.4033    0.0000 F   0  0
    9.1292   -0.6972    0.0000 N   0  0
    9.1292   -3.1039    0.0000 S   0  0
    7.7071   -2.6481    0.0000 C   0  0
    7.7071   -1.1530    0.0000 C   0  0
    6.4127   -0.3873    0.0000 C   0  0
    5.1000   -1.1530    0.0000 C   0  0
    5.1000   -2.6481    0.0000 C   0  0
    6.4127   -3.4138    0.0000 C   0  0
   14.0090    1.8608    0.0000 C   0  0
   14.8442    3.1077    0.0000 C   0  0
   16.1682    0.4164    0.0000 C   0  0
   16.6993   -0.6597    0.0000 C   0  0
   14.3173    4.4985    0.0000 N   0  0
   15.4982    5.4234    0.0000 C   0  0
   16.7427    4.5862    0.0000 N   0  0
   16.3310    3.1438    0.0000 C   0  0
   16.8348    1.4142    0.0000 O   0  0
  1  2  2  0
  2  3  1  0
  4  5  2  0
  5  6  1  0
  6  7  2  0
  7  8  1  0
  8  9  2  0
  9  4  1  0
  7 10  1  0
  5 11  1  0
  9 12  1  0
 13 16  1  0
 15 14  1  0
 14 10  1  0
 15 16  2  0
 16 17  1  0
 17 18  2  0
 18 19  1  0
 19 20  2  0
 20 15  1  0
 11 21  1  0
 21 22  1  0
 11 23  1  0
 23 24  1  0
 13 10  2  0
 22 25  1  0
 25 26  1  0
 26 27  2  0
 27 28  1  0
 28 22  2  0
 23 29  2  0
M  END
> <COMPOUND_ID>
DNDI2166110-8

$$$$

  SciTegic10251309232D

 29 32  0  0  0  0            999 V2000
    6.4293   -7.6548    0.0000 C   0  0
    6.4281   -8.4822    0.0000 C   0  0
    7.1429   -8.8950    0.0000 C   0  0
    7.8594   -8.4817    0.0000 C   0  0
    7.8565   -7.6512    0.0000 C   0  0
    7.1411   -7.2421    0.0000 C   0  0
    5.7148   -7.2425    0.0000 C   0  0
    5.7146   -6.4175    0.0000 C   0  0
    5.0000   -6.0052    0.0000 C   0  0
    6.4289   -6.0049    0.0000 C   0  0
    8.5745   -8.8931    0.0000 N   0  0
    8.5694   -7.2360    0.0000 N   0  0
    8.6625   -9.7109    0.0000 C   0  0
    9.4698   -9.8812    0.0000 C   0  0
    9.8812   -9.1660    0.0000 N   0  0
    9.3281   -8.5539    0.0000 C   0  0
    8.5663   -6.4110    0.0000 C   0  0
    9.2792   -5.9959    0.0000 C   0  0
    7.8503   -6.0012    0.0000 O   0  0
   10.0310   -6.3281    0.0000 S   0  0
   10.5808   -5.7129    0.0000 C   0  0
   10.1655   -5.0000    0.0000 N   0  0
    9.3593   -5.1746    0.0000 C   0  0
   11.4015   -5.7961    0.0000 C   0  0
   11.7363   -6.5473    0.0000 C   0  0
   12.5562   -6.6307    0.0000 C   0  0
   13.0395   -5.9610    0.0000 C   0  0
   12.6970   -5.2058    0.0000 C   0  0
   11.8780   -5.1260    0.0000 C   0  0
  1  2  2  0
  2  3  1  0
  3  4  2  0
  4  5  1  0
  5  6  2  0
  6  1  1  0
  1  7  1  0
  7  8  1  0
  8  9  1  0
  8 10  1  0
  4 11  1  0
  5 12  1  0
 11 13  1  0
 13 14  2  0
 14 15  1  0
 15 16  2  0
 16 11  1  0
 12 17  1  0
 17 18  1  0
 17 19  2  0
 18 20  1  0
 20 21  1  0
 21 22  2  0
 22 23  1  0
 23 18  2  0
 21 24  1  0
 24 25  2  0
 25 26  1  0
 26 27  2  0
 27 28  1  0
 28 29  2  0
 29 24  1  0
M  END
> <COMPOUND_ID>
DNDI2166113

$$$$

  SciTegic10251309232D

 23 25  0  0  0  0            999 V2000
    7.0950   -6.6620    0.0000 C   0  0
    7.0939   -7.4891    0.0000 C   0  0
    7.8085   -7.9018    0.0000 C   0  0
    8.5247   -7.4886    0.0000 C   0  0
    8.5218   -6.6583    0.0000 C   0  0
    7.8067   -6.2493    0.0000 C   0  0
    9.2345   -6.2433    0.0000 C   0  0
    9.9475   -6.6560    0.0000 C   0  0
   10.6597   -6.2416    0.0000 C   0  0
   10.6570   -5.4160    0.0000 C   0  0
    9.9362   -5.0065    0.0000 C   0  0
    9.2270   -5.4232    0.0000 C   0  0
    7.8083   -8.7265    0.0000 F   0  0
    6.3793   -7.9009    0.0000 N   0  0
    5.6654   -7.4879    0.0000 C   0  0
    5.6661   -6.6632    0.0000 C   0  0
    6.3344   -6.1768    0.0000 N   0  0
    6.0801   -5.3923    0.0000 C   0  0
    5.2553   -5.3916    0.0000 N   0  0
    5.0000   -6.1758    0.0000 C   0  0
    6.3787   -8.7256    0.0000 C   0  0
    5.6641   -9.1374    0.0000 C   0  0
   11.3692   -5.0000    0.0000 F   0  0
  1  2  2  0
  2  3  1  0
  3  4  2  0
  4  5  1  0
  5  6  2  0
  6  1  1  0
  5  7  1  0
  7  8  2  0
  8  9  1  0
  9 10  2  0
 10 11  1  0
 11 12  2  0
 12  7  1  0
  3 13  1  0
  2 14  1  0
 14 15  1  0
 15 16  1  0
 16 17  1  0
 17 18  2  0
 18 19  1  0
 19 20  1  0
 20 16  2  0
 14 21  1  0
 21 22  1  0
 10 23  1  0
M  END
> <COMPOUND_ID>
DNDI2166118

$$$$

  SciTegic10251309232D

 30 33  0  0  0  0            999 V2000
    6.4295   -9.1394    0.0000 C   0  0
    6.4284   -9.9669    0.0000 C   0  0
    7.1432  -10.3798    0.0000 C   0  0
    7.8598   -9.9664    0.0000 C   0  0
    7.8569   -9.1358    0.0000 C   0  0
    7.1414   -8.7266    0.0000 C   0  0
    5.7149   -8.7270    0.0000 C   0  0
    5.7147   -7.9019    0.0000 C   0  0
    5.0000   -7.4896    0.0000 C   0  0
    6.4291   -7.4892    0.0000 C   0  0
    8.5750  -10.3778    0.0000 N   0  0
    8.5699   -8.7205    0.0000 N   0  0
    8.6631  -11.1958    0.0000 C   0  0
    9.4704  -11.3661    0.0000 C   0  0
    9.8819  -10.6508    0.0000 N   0  0
    9.3287  -10.0387    0.0000 C   0  0
    8.5668   -7.8954    0.0000 C   0  0
    9.2798   -7.4802    0.0000 C   0  0
    7.8507   -7.4856    0.0000 O   0  0
    9.9911   -7.8936    0.0000 C   0  0
   10.7036   -7.4791    0.0000 N   0  0
   10.7010   -6.6531    0.0000 C   0  0
    9.9798   -6.2434    0.0000 N   0  0
    9.2703   -6.6603    0.0000 C   0  0
   11.4134   -6.2369    0.0000 C   0  0
   12.1266   -6.6501    0.0000 C   0  0
   12.8385   -6.2347    0.0000 C   0  0
   12.8348   -5.4087    0.0000 C   0  0
   12.1131   -5.0000    0.0000 C   0  0
   11.4041   -5.4178    0.0000 C   0  0
  1  2  2  0
  2  3  1  0
  3  4  2  0
  4  5  1  0
  5  6  2  0
  6  1  1  0
  1  7  1  0
  7  8  1  0
  8  9  1  0
  8 10  1  0
  4 11  1  0
  5 12  1  0
 11 13  1  0
 13 14  2  0
 14 15  1  0
 15 16  2  0
 16 11  1  0
 12 17  1  0
 17 18  1  0
 17 19  2  0
 18 20  2  0
 20 21  1  0
 21 22  2  0
 22 23  1  0
 23 24  2  0
 24 18  1  0
 22 25  1  0
 25 26  2  0
 26 27  1  0
 27 28  2  0
 28 29  1  0
 29 30  2  0
 30 25  1  0
M  END
> <COMPOUND_ID>
DNDI2166121

$$$$

  SciTegic10251309232D

 24 26  0  0  0  0            999 V2000
    7.0991   -6.6622    0.0000 C   0  0
    7.0979   -7.4895    0.0000 C   0  0
    7.8126   -7.9023    0.0000 C   0  0
    8.5289   -7.4890    0.0000 C   0  0
    8.5261   -6.6586    0.0000 C   0  0
    7.8108   -6.2495    0.0000 C   0  0
    9.2389   -6.2435    0.0000 C   0  0
    9.9520   -6.6563    0.0000 C   0  0
   10.6643   -6.2418    0.0000 C   0  0
   10.6617   -5.4161    0.0000 C   0  0
    9.9407   -5.0065    0.0000 C   0  0
    9.2314   -5.4233    0.0000 C   0  0
    7.8124   -8.7271    0.0000 F   0  0
    6.3832   -7.9013    0.0000 N   0  0
    5.6692   -7.4883    0.0000 C   0  0
    5.6699   -6.6635    0.0000 C   0  0
    6.3346   -6.1797    0.0000 N   0  0
    6.0803   -5.3950    0.0000 C   0  0
    5.2554   -5.3944    0.0000 N   0  0
    5.0000   -6.1787    0.0000 C   0  0
   11.3739   -5.0000    0.0000 F   0  0
    6.3826   -8.7262    0.0000 C   0  0
    5.6679   -9.1381    0.0000 O   0  0
    7.0966   -9.1392    0.0000 C   0  0
  1  2  2  0
  2  3  1  0
  3  4  2  0
  4  5  1  0
  5  6  2  0
  6  1  1  0
  5  7  1  0
  7  8  2  0
  8  9  1  0
  9 10  2  0
 10 11  1  0
 11 12  2  0
 12  7  1  0
  3 13  1  0
  2 14  1  0
 14 15  1  0
 15 16  1  0
 16 17  1  0
 17 18  2  0
 18 19  1  0
 19 20  1  0
 20 16  2  0
 10 21  1  0
 14 22  1  0
 22 23  2  0
 22 24  1  0
M  END
> <COMPOUND_ID>
DNDI2166135

$$$$

  SciTegic10251309232D

 27 30  0  0  0  0            999 V2000
    7.7352   -8.3064    0.0000 S   0  0
   10.5996   -7.4809    0.0000 C   0  0
   11.3543   -7.1390    0.0000 N   0  0
    7.7352   -7.4809    0.0000 N   0  0
   10.6872   -8.2981    0.0000 S   0  0
    8.4523   -7.0681    0.0000 C   0  0
    9.8825   -7.0681    0.0000 C   0  0
    6.3051   -7.4809    0.0000 C   0  0
   11.9089   -7.7519    0.0000 C   0  0
    5.4128   -8.4732    0.0000 N   0  0
    7.0222   -7.0681    0.0000 C   0  0
   11.4961   -8.4649    0.0000 C   0  0
    9.1653   -7.4809    0.0000 C   0  0
    8.4523   -6.2384    0.0000 C   0  0
    5.5504   -7.1432    0.0000 N   0  0
    5.0000   -7.7561    0.0000 C   0  0
    8.5566   -8.3023    0.0000 O   0  0
    6.9055   -8.3023    0.0000 O   0  0
    6.2175   -8.3023    0.0000 C   0  0
    9.8825   -6.2384    0.0000 C   0  0
    9.1653   -5.8256    0.0000 C   0  0
    7.7310   -9.1278    0.0000 C   0  0
    9.1612   -5.0000    0.0000 F   0  0
   12.7261   -7.7477    0.0000 C   0  0
   11.9089   -9.1737    0.0000 C   0  0
   12.7303   -9.1737    0.0000 C   0  0
   13.1389   -8.4565    0.0000 C   0  0
  2  7  1  0
  3  2  2  0
  4  1  1  0
  5  2  1  0
  6  4  1  0
  7 13  2  0
  8 11  1  0
  9  3  1  0
 10 19  1  0
 11  4  1  0
 12  5  1  0
 13  6  1  0
 14  6  2  0
 15  8  1  0
 16 15  1  0
 17  1  2  0
 18  1  2  0
 19  8  2  0
 20  7  1  0
 21 14  1  0
 22  1  1  0
 23 21  1  0
 24  9  1  0
 25 12  1  0
 26 25  2  0
 27 24  2  0
 21 20  2  0
 10 16  2  0
 12  9  2  0
 27 26  1  0
M  END
> <COMPOUND_ID>
DNDI2174696

$$$$

  SciTegic10251309232D

 31 34  0  0  0  0            999 V2000
    6.5940   -9.9536    0.0000 N   0  0
    6.5898   -9.1329    0.0000 C   0  0
    8.7354   -8.7204    0.0000 C   0  0
    7.3064   -8.7204    0.0000 C   0  0
    9.4478   -9.9578    0.0000 N   0  0
    8.0188   -9.1329    0.0000 N   0  0
    9.4478   -9.1329    0.0000 C   0  0
    9.0437  -11.2285    0.0000 N   0  0
    8.7354   -7.8955    0.0000 C   0  0
    5.8816  -10.3661    0.0000 C   0  0
    8.7854  -10.4452    0.0000 C   0  0
    9.4478   -7.4789    0.0000 C   0  0
   10.1644   -8.7204    0.0000 C   0  0
    5.1650   -9.1287    0.0000 N   0  0
    9.4437   -6.6540    0.0000 C   0  0
   10.1227  -10.4452    0.0000 C   0  0
    9.8686  -11.2285    0.0000 C   0  0
   10.1602   -6.2416    0.0000 N   0  0
    7.3064   -7.8955    0.0000 O   0  0
   10.1644   -7.8914    0.0000 C   0  0
    5.8857  -11.1868    0.0000 C   0  0
    5.8774   -8.7163    0.0000 C   0  0
    5.1608   -9.9536    0.0000 C   0  0
   10.1561   -5.4167    0.0000 O   0  0
    8.7312   -6.2457    0.0000 C   0  0
    5.1692  -11.6034    0.0000 C   0  0
    6.5982  -11.5951    0.0000 C   0  0
   10.8685   -5.0000    0.0000 C   0  0
    6.6023  -12.4200    0.0000 C   0  0
    5.1733  -12.4242    0.0000 C   0  0
    5.8899  -12.8366    0.0000 C   0  0
  2  1  1  0
  3  6  1  0
  4  2  1  0
  5  7  1  0
  6  4  1  0
  7  3  1  0
  8 11  2  0
  9  3  2  0
 10  1  2  0
 11  5  1  0
 12  9  1  0
 13  7  2  0
 14 22  1  0
 15 12  1  0
 16  5  1  0
 17 16  2  0
 18 15  2  0
 19  4  2  0
 20 12  2  0
 21 10  1  0
 22  2  2  0
 23 10  1  0
 24 18  1  0
 25 15  1  0
 26 21  2  0
 27 21  1  0
 28 24  1  0
 29 27  2  0
 30 26  1  0
 31 29  1  0
 23 14  2  0
 31 30  2  0
 20 13  1  0
 17  8  1  0
M  END
> <COMPOUND_ID>
DNDI2174706

$$$$

  SciTegic10251309232D

 28 30  0  0  0  0            999 V2000
   16.1971    0.5893    0.0000 Cl  0  0
    2.5889    0.0182    0.0000 C   0  0
    1.7138    1.2033    0.0000 N   0  0
    1.7138   -1.2033    0.0000 S   0  0
    8.5716    0.4033    0.0000 N   0  0
    0.2917    0.7475    0.0000 C   0  0
    9.4304   -0.8276    0.0000 C   0  0
    0.2917   -0.7475    0.0000 C   0  0
    4.0896    0.0290    0.0000 C   0  0
    7.0761    0.2776    0.0000 C   0  0
    9.2114    1.7609    0.0000 C   0  0
    8.9210   -1.9141    0.0000 O   0  0
   12.8434    3.3651    0.0000 N   0  0
   10.7070    1.8865    0.0000 C   0  0
    4.9397   -1.2009    0.0000 C   0  0
    4.7275    1.3885    0.0000 C   0  0
    6.2225    1.5110    0.0000 C   0  0
    6.4347   -1.0783    0.0000 C   0  0
   11.6124   -1.6844    0.0000 N   0  0
   10.9258   -0.7003    0.0000 C   0  0
   11.3484    3.2425    0.0000 C   0  0
   -1.0028    1.5132    0.0000 C   0  0
   -1.0028   -1.5132    0.0000 C   0  0
   13.6971    2.1316    0.0000 C   0  0
   11.5607    0.6531    0.0000 C   0  0
   13.0557    0.7757    0.0000 C   0  0
   -2.3155    0.7475    0.0000 C   0  0
   -2.3155   -0.7475    0.0000 C   0  0
  3  2  2  0
  4  2  1  0
  5 10  1  0
  6  3  1  0
  7  5  1  0
  8  4  1  0
  9  2  1  0
 10 18  2  0
 11  5  1  0
 12  7  2  0
 13 21  2  0
 14 11  1  0
 15  9  2  0
 16  9  1  0
 17 16  2  0
 18 15  1  0
 19 20  1  0
 20  7  1  0
 21 14  1  0
 22  6  1  0
 23  8  1  0
 24 13  1  0
 25 14  2  0
 26 25  1  0
 27 22  2  0
 28 23  2  0
  6  8  2  0
 17 10  1  0
 27 28  1  0
 24 26  2  0
M  END
> <COMPOUND_ID>
DNDI2218869-24

$$$$
