CHEMBL47529
  MOE2019           2D

 21 23  0  0  0  0  0  0  0  0999 V2000
    0.5170   -0.8950    0.0000 C   0  0  0  0  0  0  0  0  0  0  0  0
    1.2670    0.4040    0.0000 C   0  0  0  0  0  0  0  0  0  0  0  0
    2.7590    0.5600    0.0000 N   0  0  0  0  0  0  0  0  0  0  0  0
    3.0710    2.0280    0.0000 C   0  0  0  0  0  0  0  0  0  0  0  0
    4.3700    2.7780    0.0000 C   0  0  0  0  0  0  0  0  0  0  0  0
    5.6690    2.0280    0.0000 O   0  0  0  0  0  0  0  0  0  0  0  0
    6.9680    2.7780    0.0000 C   0  0  0  0  0  0  0  0  0  0  0  0
    8.2670    2.0280    0.0000 C   0  0  0  0  0  0  0  0  0  0  0  0
    9.5660    2.7780    0.0000 C   0  0  0  0  0  0  0  0  0  0  0  0
   10.8650    2.0280    0.0000 C   0  0  0  0  0  0  0  0  0  0  0  0
   10.8650    0.5280    0.0000 C   0  0  0  0  0  0  0  0  0  0  0  0
    9.5660   -0.2220    0.0000 C   0  0  0  0  0  0  0  0  0  0  0  0
    8.2670    0.5280    0.0000 C   0  0  0  0  0  0  0  0  0  0  0  0
    4.3700    4.2780    0.0000 C   0  0  0  0  0  0  0  0  0  0  0  0
    3.0710    5.0280    0.0000 C   0  0  0  0  0  0  0  0  0  0  0  0
    1.7720    4.2780    0.0000 C   0  0  0  0  0  0  0  0  0  0  0  0
    1.7720    2.7780    0.0000 N   0  0  0  0  0  0  0  0  0  0  0  0
    0.6570    1.7740    0.0000 C   0  0  0  0  0  0  0  0  0  0  0  0
   -0.8100    2.0860    0.0000 C   0  0  0  0  0  0  0  0  0  0  0  0
   -1.8140    0.9710    0.0000 C   0  0  0  0  0  0  0  0  0  0  0  0
   -2.8180   -0.1440    0.0000 N   0  0  0  0  0  0  0  0  0  0  0  0
  1  2  1  0  0  0  0
  2  3  1  0  0  0  0
  2 18  2  0  0  0  0
  3  4  2  0  0  0  0
  4  5  1  0  0  0  0
  4 17  1  0  0  0  0
  5  6  1  0  0  0  0
  5 14  2  0  0  0  0
  6  7  1  0  0  0  0
  7  8  1  0  0  0  0
  8  9  1  0  0  0  0
  8 13  2  0  0  0  0
  9 10  2  0  0  0  0
 10 11  1  0  0  0  0
 11 12  2  0  0  0  0
 12 13  1  0  0  0  0
 14 15  1  0  0  0  0
 15 16  2  0  0  0  0
 16 17  1  0  0  0  0
 17 18  1  0  0  0  0
 18 19  1  0  0  0  0
 19 20  1  0  0  0  0
 20 21  3  0  0  0  0
M  END
>  <Compound name >
CHEMBL47529

$$$$
CHEMBL1453
  MOE2019           2D

 27 31  0  0  1  0  0  0  0  0999 V2000
   -2.3210   -4.0280    0.0000 C   0  0  0  0  0  0  0  0  0  0  0  0
   -3.0550   -2.7200    0.0000 C   0  0  2  0  0  0  0  0  0  0  0  0
   -3.7980   -4.0230    0.0000 C   0  0  0  0  0  0  0  0  0  0  0  0
   -5.2980   -4.0310    0.0000 C   0  0  0  0  0  0  0  0  0  0  0  0
   -6.0550   -2.7360    0.0000 C   0  0  2  0  0  0  0  0  0  0  0  0
   -7.5550   -2.7440    0.0000 O   0  0  0  0  0  0  0  0  0  0  0  0
   -5.3120   -1.4330    0.0000 C   0  0  0  0  0  0  0  0  0  0  0  0
   -3.8120   -1.4250    0.0000 C   0  0  1  0  0  0  0  0  0  0  0  0
   -3.0690   -0.1220    0.0000 C   0  0  0  0  0  0  0  0  0  0  0  0
   -1.5690   -0.1140    0.0000 C   0  0  0  0  0  0  0  0  0  0  0  0
   -0.8120   -1.4090    0.0000 C   0  0  2  0  0  0  0  0  0  0  0  0
   -1.5550   -2.7120    0.0000 C   0  0  2  0  0  0  0  0  0  0  0  0
   -0.7980   -4.0070    0.0000 C   0  0  0  0  0  0  0  0  0  0  0  0
    0.7020   -3.9990    0.0000 C   0  0  0  0  0  0  0  0  0  0  0  0
    1.4450   -2.6960    0.0000 C   0  0  2  0  0  0  0  0  0  0  0  0
    2.2900   -3.9350    0.0000 C   0  0  0  0  0  0  0  0  0  0  0  0
    2.9100   -2.3760    0.0000 C   0  0  2  0  0  0  0  0  0  0  0  0
    3.0590   -0.8840    0.0000 C   0  0  0  0  0  0  0  0  0  0  0  0
    1.6860   -0.2810    0.0000 C   0  0  0  0  0  0  0  0  0  0  0  0
    0.6880   -1.4010    0.0000 C   0  0  2  0  0  0  0  0  0  0  0  0
    0.0710   -0.0340    0.0000 O   0  0  0  0  0  0  0  0  0  0  0  0
    4.0310   -3.3740    0.0000 C   0  0  0  0  0  0  0  0  0  0  0  0
    5.4960   -3.0550    0.0000 C   0  0  0  0  0  0  0  0  0  0  0  0
    6.2530   -4.3500    0.0000 C   0  0  0  0  0  0  0  0  0  0  0  0
    7.7460   -4.4980    0.0000 O   0  0  0  0  0  0  0  0  0  0  0  0
    5.2550   -5.4700    0.0000 O   0  0  0  0  0  0  0  0  0  0  0  0
    3.8820   -4.8670    0.0000 C   0  0  0  0  0  0  0  0  0  0  0  0
  2  1  1  6  0  0  0
  2  3  1  0  0  0  0
  2  8  1  0  0  0  0
  2 12  1  0  0  0  0
  3  4  1  0  0  0  0
  4  5  1  0  0  0  0
  5  6  1  6  0  0  0
  5  7  1  0  0  0  0
  7  8  1  0  0  0  0
  8  9  1  1  0  0  0
  9 10  1  0  0  0  0
 11 10  1  1  0  0  0
 11 12  1  0  0  0  0
 11 20  1  0  0  0  0
 12 13  1  6  0  0  0
 13 14  1  0  0  0  0
 14 15  1  0  0  0  0
 15 16  1  6  0  0  0
 15 17  1  0  0  0  0
 15 20  1  0  0  0  0
 17 18  1  0  0  0  0
 17 22  1  6  0  0  0
 18 19  1  0  0  0  0
 19 20  1  0  0  0  0
 20 21  1  6  0  0  0
 22 23  2  0  0  0  0
 22 27  1  0  0  0  0
 23 24  1  0  0  0  0
 24 25  2  0  0  0  0
 24 26  1  0  0  0  0
 26 27  1  0  0  0  0
M  END
>  <Compound name >
CHEMBL1453

$$$$
CHEMBL1615026
  MOE2019           2D

 23 24  0  0  0  0  0  0  0  0999 V2000
   10.2720    5.9300    0.0000 C   0  0  0  0  0  0  0  0  0  0  0  0
    9.5220    4.6310    0.0000 C   0  0  0  0  0  0  0  0  0  0  0  0
    8.0220    4.6310    0.0000 C   0  0  0  0  0  0  0  0  0  0  0  0
    7.2720    3.3320    0.0000 C   0  0  0  0  0  0  0  0  0  0  0  0
    5.7720    3.3320    0.0000 N   0  0  0  0  0  0  0  0  0  0  0  0
    5.0220    4.6310    0.0000 N   0  0  0  0  0  0  0  0  0  0  0  0
    3.5220    4.6310    0.0000 C   0  0  0  0  0  0  0  0  0  0  0  0
    2.7720    3.3320    0.0000 C   0  0  0  0  0  0  0  0  0  0  0  0
    1.2720    3.3320    0.0000 C   0  0  0  0  0  0  0  0  0  0  0  0
    0.5220    4.6310    0.0000 C   0  0  0  0  0  0  0  0  0  0  0  0
   -0.9780    4.6310    0.0000 C   0  0  0  0  0  0  0  0  0  0  0  0
    1.2720    5.9300    0.0000 C   0  0  0  0  0  0  0  0  0  0  0  0
    2.7720    5.9300    0.0000 C   0  0  0  0  0  0  0  0  0  0  0  0
    3.5220    7.2290    0.0000 C   0  0  0  0  0  0  0  0  0  0  0  0
    0.5220    2.0330    0.0000 S   0  0  0  0  0  0  0  0  0  0  0  0
   -0.7770    2.7830    0.0000 O   0  0  0  0  0  0  0  0  0  0  0  0
    1.8210    1.2830    0.0000 O   0  0  0  0  0  0  0  0  0  0  0  0
   -0.2280    0.7340    0.0000 O   0  0  0  0  0  0  0  0  0  0  0  0
    8.0220    2.0330    0.0000 C   0  0  0  0  0  0  0  0  0  0  0  0
    7.2720    0.7340    0.0000 N   0  0  0  0  0  0  0  0  0  0  0  0
    9.5220    2.0330    0.0000 C   0  0  0  0  0  0  0  0  0  0  0  0
   10.2720    3.3320    0.0000 C   0  0  0  0  0  0  0  0  0  0  0  0
   11.7720    3.3320    0.0000 O   0  0  0  0  0  0  0  0  0  0  0  0
  1  2  1  0  0  0  0
  2  3  1  0  0  0  0
  2 22  2  0  0  0  0
  3  4  2  0  0  0  0
  4  5  1  0  0  0  0
  4 19  1  0  0  0  0
  5  6  2  0  0  0  0
  6  7  1  0  0  0  0
  7  8  1  0  0  0  0
  7 13  2  0  0  0  0
  8  9  2  0  0  0  0
  9 10  1  0  0  0  0
  9 15  1  0  0  0  0
 10 11  1  0  0  0  0
 10 12  2  0  0  0  0
 12 13  1  0  0  0  0
 13 14  1  0  0  0  0
 15 16  2  0  0  0  0
 15 17  2  0  0  0  0
 15 18  1  0  0  0  0
 19 20  1  0  0  0  0
 19 21  2  0  0  0  0
 21 22  1  0  0  0  0
 22 23  1  0  0  0  0
M  END
>  <Compound name >
CHEMBL1615026

$$$$
CHEMBL3897393
  MOE2019           2D

 31 35  0  0  1  0  0  0  0  0999 V2000
    0.8000   -1.3070    0.0000 C   0  0  0  0  0  0  0  0  0  0  0  0
    2.2720   -1.0200    0.0000 C   0  0  0  0  0  0  0  0  0  0  0  0
    3.2570   -2.1510    0.0000 O   0  0  0  0  0  0  0  0  0  0  0  0
    2.7600    0.3990    0.0000 N   0  0  0  0  0  0  0  0  0  0  0  0
    1.7750    1.5300    0.0000 C   0  0  0  0  0  0  0  0  0  0  0  0
    2.2630    2.9490    0.0000 C   0  0  0  0  0  0  0  0  0  0  0  0
    3.7350    3.2360    0.0000 C   0  0  0  0  0  0  0  0  0  0  0  0
    4.7200    2.1040    0.0000 C   0  0  0  0  0  0  0  0  0  0  0  0
    4.2320    0.6860    0.0000 C   0  0  0  0  0  0  0  0  0  0  0  0
    6.1000    2.6910    0.0000 C   0  0  0  0  0  0  0  0  0  0  0  0
    7.3860    1.9190    0.0000 N   0  0  0  0  0  0  0  0  0  0  0  0
    8.6980    2.6480    0.0000 C   0  0  0  0  0  0  0  0  0  0  0  0
    8.7230    4.1470    0.0000 C   0  0  0  0  0  0  0  0  0  0  0  0
   10.0340    4.8750    0.0000 C   0  0  0  0  0  0  0  0  0  0  0  0
   11.3210    4.1040    0.0000 C   0  0  0  0  0  0  0  0  0  0  0  0
   11.2950    2.6040    0.0000 C   0  0  0  0  0  0  0  0  0  0  0  0
    9.9840    1.8760    0.0000 C   0  0  0  0  0  0  0  0  0  0  0  0
    9.9590    0.3760    0.0000 F   0  0  0  0  0  0  0  0  0  0  0  0
   12.6320    4.8320    0.0000 C   0  0  0  0  0  0  0  0  0  0  0  0
   12.8140    6.3200    0.0000 C   0  0  0  0  0  0  0  0  0  0  0  0
   14.2860    6.6080    0.0000 N   0  0  0  0  0  0  0  0  0  0  0  0
   15.0140    5.2960    0.0000 N   0  0  0  0  0  0  0  0  0  0  0  0
   16.5030    5.1140    0.0000 C   0  0  0  0  0  0  0  0  0  0  0  0
   13.9920    4.1980    0.0000 C   0  0  0  0  0  0  0  0  0  0  0  0
    5.9680    4.1850    0.0000 N   0  0  0  0  0  0  0  0  0  0  0  0
    4.5070    4.5220    0.0000 N   0  0  0  0  0  0  0  0  0  0  0  0
    3.9200    5.9020    0.0000 C   0  0  1  0  0  0  0  0  0  0  0  0
    2.4580    6.2390    0.0000 C   0  0  0  0  0  0  0  0  0  0  0  0
    2.3260    7.7330    0.0000 C   0  0  0  0  0  0  0  0  0  0  0  0
    3.7070    8.3200    0.0000 O   0  0  0  0  0  0  0  0  0  0  0  0
    4.6910    7.1890    0.0000 C   0  0  0  0  0  0  0  0  0  0  0  0
  1  2  1  0  0  0  0
  2  3  2  0  0  0  0
  2  4  1  0  0  0  0
  4  5  1  0  0  0  0
  4  9  1  0  0  0  0
  5  6  1  0  0  0  0
  6  7  1  0  0  0  0
  7  8  2  0  0  0  0
  7 26  1  0  0  0  0
  8  9  1  0  0  0  0
  8 10  1  0  0  0  0
 10 11  1  0  0  0  0
 10 25  2  0  0  0  0
 11 12  1  0  0  0  0
 12 13  1  0  0  0  0
 12 17  2  0  0  0  0
 13 14  2  0  0  0  0
 14 15  1  0  0  0  0
 15 16  2  0  0  0  0
 15 19  1  0  0  0  0
 16 17  1  0  0  0  0
 17 18  1  0  0  0  0
 19 20  1  0  0  0  0
 19 24  2  0  0  0  0
 20 21  2  0  0  0  0
 21 22  1  0  0  0  0
 22 23  1  0  0  0  0
 22 24  1  0  0  0  0
 25 26  1  0  0  0  0
 27 26  1  1  0  0  0
 27 28  1  0  0  0  0
 27 31  1  0  0  0  0
 28 29  1  0  0  0  0
 29 30  1  0  0  0  0
 30 31  1  0  0  0  0
M  END
>  <Compound name >
CHEMBL3897393

$$$$
CHEMBL3939958
  MOE2019           2D

 57 58  0  0  1  0  0  0  0  0999 V2000
    3.0790   13.9930    0.0000 C   0  0  0  0  0  0  0  0  0  0  0  0
    2.3290   12.6940    0.0000 C   0  0  0  0  0  0  0  0  0  0  0  0
    0.8290   12.6940    0.0000 N   0  0  0  0  0  0  0  0  0  0  0  0
    0.0790   13.9930    0.0000 C   0  0  0  0  0  0  0  0  0  0  0  0
    0.8290   15.2920    0.0000 C   0  0  0  0  0  0  0  0  0  0  0  0
    0.0790   11.3950    0.0000 C   0  0  0  0  0  0  0  0  0  0  0  0
    0.8290   10.0960    0.0000 C   0  0  0  0  0  0  0  0  0  0  0  0
    0.0790    8.7970    0.0000 C   0  0  0  0  0  0  0  0  0  0  0  0
    0.8290    7.4980    0.0000 C   0  0  0  0  0  0  0  0  0  0  0  0
    0.0790    6.1990    0.0000 C   0  0  2  0  0  0  0  0  0  0  0  0
    0.8290    4.9000    0.0000 N   0  0  0  0  0  0  0  0  0  0  0  0
    2.3290    4.9000    0.0000 C   0  0  0  0  0  0  0  0  0  0  0  0
    3.0790    6.1990    0.0000 O   0  0  0  0  0  0  0  0  0  0  0  0
    3.0790    3.6010    0.0000 C   0  0  2  0  0  0  0  0  0  0  0  0
    2.3290    2.3020    0.0000 C   0  0  0  0  0  0  0  0  0  0  0  0
    0.8290    2.3020    0.0000 C   0  0  0  0  0  0  0  0  0  0  0  0
    0.0790    3.6010    0.0000 C   0  0  0  0  0  0  0  0  0  0  0  0
    0.0790    1.0030    0.0000 C   0  0  0  0  0  0  0  0  0  0  0  0
    4.5790    3.6010    0.0000 N   0  0  0  0  0  0  0  0  0  0  0  0
    5.3290    2.3020    0.0000 C   0  0  0  0  0  0  0  0  0  0  0  0
    4.5790    1.0030    0.0000 O   0  0  0  0  0  0  0  0  0  0  0  0
    6.8290    2.3020    0.0000 C   0  0  2  0  0  0  0  0  0  0  0  0
    7.5790    1.0030    0.0000 C   0  0  0  0  0  0  0  0  0  0  0  0
    7.5790    3.6010    0.0000 N   0  0  0  0  0  0  0  0  0  0  0  0
    9.0790    3.6010    0.0000 C   0  0  0  0  0  0  0  0  0  0  0  0
    9.8290    2.3020    0.0000 O   0  0  0  0  0  0  0  0  0  0  0  0
    9.8290    4.9000    0.0000 C   0  0  2  0  0  0  0  0  0  0  0  0
    9.0790    6.1990    0.0000 C   0  0  0  0  0  0  0  0  0  0  0  0
    9.8290    7.4980    0.0000 C   0  0  0  0  0  0  0  0  0  0  0  0
   11.3290    7.4980    0.0000 C   0  0  0  0  0  0  0  0  0  0  0  0
   12.0790    8.7970    0.0000 C   0  0  0  0  0  0  0  0  0  0  0  0
   11.3290   10.0960    0.0000 C   0  0  0  0  0  0  0  0  0  0  0  0
    9.8290   10.0960    0.0000 C   0  0  0  0  0  0  0  0  0  0  0  0
    9.0790    8.7970    0.0000 C   0  0  0  0  0  0  0  0  0  0  0  0
   11.3290    4.9000    0.0000 N   0  0  0  0  0  0  0  0  0  0  0  0
   12.0790    3.6010    0.0000 C   0  0  0  0  0  0  0  0  0  0  0  0
   11.3290    2.3020    0.0000 O   0  0  0  0  0  0  0  0  0  0  0  0
   13.5790    3.6010    0.0000 C   0  0  0  0  0  0  0  0  0  0  0  0
   14.3290    4.9000    0.0000 C   0  0  0  0  0  0  0  0  0  0  0  0
   15.8290    4.9000    0.0000 C   0  0  0  0  0  0  0  0  0  0  0  0
   16.5790    3.6010    0.0000 C   0  0  0  0  0  0  0  0  0  0  0  0
   15.8290    2.3020    0.0000 C   0  0  0  0  0  0  0  0  0  0  0  0
   14.3290    2.3020    0.0000 C   0  0  0  0  0  0  0  0  0  0  0  0
   18.0790    3.6010    0.0000 C   0  0  0  0  0  0  0  0  0  0  0  0
   19.5790    3.6010    0.0000 C   0  0  0  0  0  0  0  0  0  0  0  0
   18.0790    5.1010    0.0000 C   0  0  0  0  0  0  0  0  0  0  0  0
   18.0790    2.1010    0.0000 C   0  0  0  0  0  0  0  0  0  0  0  0
   -1.4210    6.1990    0.0000 C   0  0  0  0  0  0  0  0  0  0  0  0
   -2.1710    4.9000    0.0000 O   0  0  0  0  0  0  0  0  0  0  0  0
   -2.1710    7.4980    0.0000 N   0  0  0  0  0  0  0  0  0  0  0  0
   -3.6710    7.4980    0.0000 C   0  0  1  0  0  0  0  0  0  0  0  0
   -4.4210    6.1990    0.0000 C   0  0  0  0  0  0  0  0  0  0  0  0
   -5.9210    6.1990    0.0000 O   0  0  0  0  0  0  0  0  0  0  0  0
   -4.4210    8.7970    0.0000 C   0  0  0  0  0  0  0  0  0  0  0  0
   -3.6710   10.0960    0.0000 O   0  0  0  0  0  0  0  0  0  0  0  0
   -5.9210    8.7970    0.0000 O   0  0  0  0  0  0  0  0  0  0  0  0
   -6.6710   10.0960    0.0000 C   0  0  0  0  0  0  0  0  0  0  0  0
  1  2  1  0  0  0  0
  2  3  1  0  0  0  0
  3  4  1  0  0  0  0
  3  6  1  0  0  0  0
  4  5  1  0  0  0  0
  6  7  1  0  0  0  0
  7  8  1  0  0  0  0
  8  9  1  0  0  0  0
 10  9  1  6  0  0  0
 10 11  1  0  0  0  0
 10 48  1  0  0  0  0
 11 12  1  0  0  0  0
 12 13  2  0  0  0  0
 14 12  1  1  0  0  0
 14 15  1  0  0  0  0
 14 19  1  0  0  0  0
 15 16  1  0  0  0  0
 16 17  1  0  0  0  0
 16 18  1  0  0  0  0
 19 20  1  0  0  0  0
 20 21  2  0  0  0  0
 20 22  1  0  0  0  0
 22 23  1  1  0  0  0
 22 24  1  0  0  0  0
 24 25  1  0  0  0  0
 25 26  2  0  0  0  0
 27 25  1  6  0  0  0
 27 28  1  0  0  0  0
 27 35  1  0  0  0  0
 28 29  1  0  0  0  0
 29 30  1  0  0  0  0
 29 34  2  0  0  0  0
 30 31  2  0  0  0  0
 31 32  1  0  0  0  0
 32 33  2  0  0  0  0
 33 34  1  0  0  0  0
 35 36  1  0  0  0  0
 36 37  2  0  0  0  0
 36 38  1  0  0  0  0
 38 39  1  0  0  0  0
 38 43  2  0  0  0  0
 39 40  2  0  0  0  0
 40 41  1  0  0  0  0
 41 42  2  0  0  0  0
 41 44  1  0  0  0  0
 42 43  1  0  0  0  0
 44 45  1  0  0  0  0
 44 46  1  0  0  0  0
 44 47  1  0  0  0  0
 48 49  2  0  0  0  0
 48 50  1  0  0  0  0
 51 50  1  1  0  0  0
 51 52  1  0  0  0  0
 51 54  1  0  0  0  0
 52 53  1  0  0  0  0
 54 55  2  0  0  0  0
 54 56  1  0  0  0  0
 56 57  1  0  0  0  0
M  END
>  <Compound name >
CHEMBL3939958

$$$$
CHEMBL296468
  MOE2019           2D

 25 27  0  0  0  0  0  0  0  0999 V2000
    4.5750   -3.7620    0.0000 C   0  0  0  0  0  0  0  0  0  0  0  0
    5.5470   -4.9050    0.0000 C   0  0  0  0  0  0  0  0  0  0  0  0
    6.5190   -6.0470    0.0000 C   0  0  0  0  0  0  0  0  0  0  0  0
    6.6890   -3.9330    0.0000 C   0  0  0  0  0  0  0  0  0  0  0  0
    4.4040   -5.8760    0.0000 C   0  0  0  0  0  0  0  0  0  0  0  0
    2.9460   -5.5230    0.0000 O   0  0  0  0  0  0  0  0  0  0  0  0
    2.1600   -6.8010    0.0000 C   0  0  0  0  0  0  0  0  0  0  0  0
    0.6640   -6.9160    0.0000 C   0  0  0  0  0  0  0  0  0  0  0  0
    0.0160   -8.2680    0.0000 S   0  0  0  0  0  0  0  0  0  0  0  0
   -1.4800   -8.3830    0.0000 C   0  0  0  0  0  0  0  0  0  0  0  0
   -2.2660   -9.6600    0.0000 C   0  0  0  0  0  0  0  0  0  0  0  0
   -3.7240   -9.3070    0.0000 N   0  0  0  0  0  0  0  0  0  0  0  0
   -3.8380   -7.8120    0.0000 C   0  0  0  0  0  0  0  0  0  0  0  0
   -5.1160   -7.0260    0.0000 N   0  0  0  0  0  0  0  0  0  0  0  0
   -6.4350   -7.7390    0.0000 C   0  0  0  0  0  0  0  0  0  0  0  0
   -6.4780   -9.2380    0.0000 O   0  0  0  0  0  0  0  0  0  0  0  0
   -7.7130   -6.9520    0.0000 C   0  0  0  0  0  0  0  0  0  0  0  0
   -7.6710   -5.4530    0.0000 C   0  0  0  0  0  0  0  0  0  0  0  0
   -8.9480   -4.6670    0.0000 C   0  0  0  0  0  0  0  0  0  0  0  0
  -10.2680   -5.3800    0.0000 N   0  0  0  0  0  0  0  0  0  0  0  0
  -10.3100   -6.8790    0.0000 C   0  0  0  0  0  0  0  0  0  0  0  0
   -9.0330   -7.6660    0.0000 C   0  0  0  0  0  0  0  0  0  0  0  0
   -2.4520   -7.2400    0.0000 S   0  0  0  0  0  0  0  0  0  0  0  0
    3.1320   -7.9430    0.0000 N   0  0  0  0  0  0  0  0  0  0  0  0
    4.5190   -7.3720    0.0000 C   0  0  0  0  0  0  0  0  0  0  0  0
  1  2  1  0  0  0  0
  2  3  1  0  0  0  0
  2  4  1  0  0  0  0
  2  5  1  0  0  0  0
  5  6  1  0  0  0  0
  5 25  2  0  0  0  0
  6  7  1  0  0  0  0
  7  8  1  0  0  0  0
  7 24  2  0  0  0  0
  8  9  1  0  0  0  0
  9 10  1  0  0  0  0
 10 11  2  0  0  0  0
 10 23  1  0  0  0  0
 11 12  1  0  0  0  0
 12 13  2  0  0  0  0
 13 14  1  0  0  0  0
 13 23  1  0  0  0  0
 14 15  1  0  0  0  0
 15 16  2  0  0  0  0
 15 17  1  0  0  0  0
 17 18  1  0  0  0  0
 17 22  1  0  0  0  0
 18 19  1  0  0  0  0
 19 20  1  0  0  0  0
 20 21  1  0  0  0  0
 21 22  1  0  0  0  0
 24 25  1  0  0  0  0
M  END
>  <Compound name >
CHEMBL296468

$$$$
CHEMBL574738
  MOE2019           2D

 38 41  0  0  0  0  0  0  0  0999 V2000
    2.5820    4.8500    0.0000 C   0  0  0  0  0  0  0  0  0  0  0  0
    3.8810    4.1000    0.0000 C   0  0  0  0  0  0  0  0  0  0  0  0
    3.8810    2.6000    0.0000 N   0  0  0  0  0  0  0  0  0  0  0  0
    5.1800    1.8500    0.0000 C   0  0  0  0  0  0  0  0  0  0  0  0
    5.1800    0.3500    0.0000 C   0  0  0  0  0  0  0  0  0  0  0  0
    3.8810   -0.4000    0.0000 N   0  0  0  0  0  0  0  0  0  0  0  0
    3.8810   -1.9000    0.0000 C   0  0  0  0  0  0  0  0  0  0  0  0
    5.1800   -2.6500    0.0000 C   0  0  0  0  0  0  0  0  0  0  0  0
    6.4790   -1.9000    0.0000 C   0  0  0  0  0  0  0  0  0  0  0  0
    7.7780   -2.6500    0.0000 C   0  0  0  0  0  0  0  0  0  0  0  0
    7.7780   -4.1500    0.0000 C   0  0  0  0  0  0  0  0  0  0  0  0
    9.0770   -4.9000    0.0000 N   0  0  0  0  0  0  0  0  0  0  0  0
   10.3760   -4.1500    0.0000 C   0  0  0  0  0  0  0  0  0  0  0  0
   10.3760   -2.6500    0.0000 O   0  0  0  0  0  0  0  0  0  0  0  0
   11.6750   -4.9000    0.0000 N   0  0  0  0  0  0  0  0  0  0  0  0
   12.9740   -4.1500    0.0000 C   0  0  0  0  0  0  0  0  0  0  0  0
   12.9740   -2.6500    0.0000 C   0  0  0  0  0  0  0  0  0  0  0  0
   14.2730   -1.9000    0.0000 C   0  0  0  0  0  0  0  0  0  0  0  0
   15.5720   -2.6500    0.0000 C   0  0  0  0  0  0  0  0  0  0  0  0
   16.8710   -1.9000    0.0000 O   0  0  0  0  0  0  0  0  0  0  0  0
   18.1710   -2.6500    0.0000 C   0  0  0  0  0  0  0  0  0  0  0  0
   19.4700   -1.9000    0.0000 C   0  0  0  0  0  0  0  0  0  0  0  0
   20.7690   -2.6500    0.0000 C   0  0  0  0  0  0  0  0  0  0  0  0
   22.0680   -1.9000    0.0000 N   0  0  0  0  0  0  0  0  0  0  0  0
   23.3670   -2.6500    0.0000 C   0  0  0  0  0  0  0  0  0  0  0  0
   20.7690   -4.1500    0.0000 N   0  0  0  0  0  0  0  0  0  0  0  0
   19.4700   -4.9000    0.0000 C   0  0  0  0  0  0  0  0  0  0  0  0
   18.1710   -4.1500    0.0000 N   0  0  0  0  0  0  0  0  0  0  0  0
   15.5720   -4.1500    0.0000 C   0  0  0  0  0  0  0  0  0  0  0  0
   14.2730   -4.9000    0.0000 C   0  0  0  0  0  0  0  0  0  0  0  0
    6.4790   -4.9000    0.0000 C   0  0  0  0  0  0  0  0  0  0  0  0
    5.1800   -4.1500    0.0000 C   0  0  0  0  0  0  0  0  0  0  0  0
    3.8810   -4.9000    0.0000 C   0  0  0  0  0  0  0  0  0  0  0  0
    4.6310   -6.1990    0.0000 F   0  0  0  0  0  0  0  0  0  0  0  0
    2.5820   -5.6500    0.0000 F   0  0  0  0  0  0  0  0  0  0  0  0
    3.1310   -3.6010    0.0000 F   0  0  0  0  0  0  0  0  0  0  0  0
    2.5820    0.3500    0.0000 C   0  0  0  0  0  0  0  0  0  0  0  0
    2.5820    1.8500    0.0000 C   0  0  0  0  0  0  0  0  0  0  0  0
  1  2  1  0  0  0  0
  2  3  1  0  0  0  0
  3  4  1  0  0  0  0
  3 38  1  0  0  0  0
  4  5  1  0  0  0  0
  5  6  1  0  0  0  0
  6  7  1  0  0  0  0
  6 37  1  0  0  0  0
  7  8  1  0  0  0  0
  8  9  1  0  0  0  0
  8 32  2  0  0  0  0
  9 10  2  0  0  0  0
 10 11  1  0  0  0  0
 11 12  1  0  0  0  0
 11 31  2  0  0  0  0
 12 13  1  0  0  0  0
 13 14  2  0  0  0  0
 13 15  1  0  0  0  0
 15 16  1  0  0  0  0
 16 17  1  0  0  0  0
 16 30  2  0  0  0  0
 17 18  2  0  0  0  0
 18 19  1  0  0  0  0
 19 20  1  0  0  0  0
 19 29  2  0  0  0  0
 20 21  1  0  0  0  0
 21 22  1  0  0  0  0
 21 28  2  0  0  0  0
 22 23  2  0  0  0  0
 23 24  1  0  0  0  0
 23 26  1  0  0  0  0
 24 25  1  0  0  0  0
 26 27  2  0  0  0  0
 27 28  1  0  0  0  0
 29 30  1  0  0  0  0
 31 32  1  0  0  0  0
 32 33  1  0  0  0  0
 33 34  1  0  0  0  0
 33 35  1  0  0  0  0
 33 36  1  0  0  0  0
 37 38  1  0  0  0  0
M  END
>  <Compound name >
CHEMBL574738

$$$$
CHEMBL445813
  MOE2019           2D

 25 27  0  0  0  0  0  0  0  0999 V2000
   -2.3150    5.7800    0.0000 Cl  0  0  0  0  0  0  0  0  0  0  0  0
   -1.6790    4.4210    0.0000 C   0  0  0  0  0  0  0  0  0  0  0  0
   -2.5380    3.1920    0.0000 C   0  0  0  0  0  0  0  0  0  0  0  0
   -1.9030    1.8330    0.0000 C   0  0  0  0  0  0  0  0  0  0  0  0
   -0.4080    1.7040    0.0000 C   0  0  0  0  0  0  0  0  0  0  0  0
    0.4510    2.9330    0.0000 C   0  0  0  0  0  0  0  0  0  0  0  0
    1.9450    2.8040    0.0000 Cl  0  0  0  0  0  0  0  0  0  0  0  0
   -0.1850    4.2920    0.0000 C   0  0  0  0  0  0  0  0  0  0  0  0
    0.6740    5.5220    0.0000 C   0  0  0  0  0  0  0  0  0  0  0  0
    0.0390    6.8800    0.0000 O   0  0  0  0  0  0  0  0  0  0  0  0
    2.1690    5.3930    0.0000 N   0  0  0  0  0  0  0  0  0  0  0  0
    3.0280    6.6220    0.0000 C   0  0  0  0  0  0  0  0  0  0  0  0
    2.5380    8.0400    0.0000 C   0  0  0  0  0  0  0  0  0  0  0  0
    3.7350    8.9440    0.0000 N   0  0  0  0  0  0  0  0  0  0  0  0
    4.9650    8.0850    0.0000 N   0  0  0  0  0  0  0  0  0  0  0  0
    4.5280    6.6500    0.0000 C   0  0  0  0  0  0  0  0  0  0  0  0
    5.4320    5.4530    0.0000 C   0  0  0  0  0  0  0  0  0  0  0  0
    4.8470    4.0720    0.0000 O   0  0  0  0  0  0  0  0  0  0  0  0
    6.9200    5.6370    0.0000 N   0  0  0  0  0  0  0  0  0  0  0  0
    7.8240    4.4400    0.0000 C   0  0  0  0  0  0  0  0  0  0  0  0
    9.3130    4.6250    0.0000 C   0  0  0  0  0  0  0  0  0  0  0  0
   10.2170    3.4280    0.0000 C   0  0  0  0  0  0  0  0  0  0  0  0
    9.6320    2.0460    0.0000 N   0  0  0  0  0  0  0  0  0  0  0  0
    8.1440    1.8620    0.0000 C   0  0  0  0  0  0  0  0  0  0  0  0
    7.2400    3.0590    0.0000 C   0  0  0  0  0  0  0  0  0  0  0  0
  1  2  1  0  0  0  0
  2  3  1  0  0  0  0
  2  8  2  0  0  0  0
  3  4  2  0  0  0  0
  4  5  1  0  0  0  0
  5  6  2  0  0  0  0
  6  7  1  0  0  0  0
  6  8  1  0  0  0  0
  8  9  1  0  0  0  0
  9 10  2  0  0  0  0
  9 11  1  0  0  0  0
 11 12  1  0  0  0  0
 12 13  2  0  0  0  0
 12 16  1  0  0  0  0
 13 14  1  0  0  0  0
 14 15  1  0  0  0  0
 15 16  2  0  0  0  0
 16 17  1  0  0  0  0
 17 18  2  0  0  0  0
 17 19  1  0  0  0  0
 19 20  1  0  0  0  0
 20 21  1  0  0  0  0
 20 25  1  0  0  0  0
 21 22  1  0  0  0  0
 22 23  1  0  0  0  0
 23 24  1  0  0  0  0
 24 25  1  0  0  0  0
M  END
>  <Compound name >
CHEMBL445813

$$$$
CHEMBL388978
  MOE2019           2D

 35 42  0  0  1  0  0  0  0  0999 V2000
    9.5590    0.4930    0.0000 C   0  0  0  0  0  0  0  0  0  0  0  0
    9.5580    1.9930    0.0000 N   0  0  0  0  0  0  0  0  0  0  0  0
    8.2590    2.7430    0.0000 C   0  0  2  0  0  0  0  0  0  0  0  0
    6.9580    1.9950    0.0000 C   0  0  0  0  0  0  0  0  0  0  0  0
    5.6400    2.7390    0.0000 C   0  0  1  0  0  0  0  0  0  0  0  0
    5.6840    4.2270    0.0000 O   0  0  0  0  0  0  0  0  0  0  0  0
    6.9510    5.0110    0.0000 C   0  0  1  0  0  0  0  0  0  0  0  0
    7.9170    6.1580    0.0000 C   0  0  0  0  0  0  0  0  0  0  0  0
    8.2540    4.2430    0.0000 C   0  0  2  0  0  0  0  0  0  0  0  0
    9.5550    4.9890    0.0000 O   0  0  0  0  0  0  0  0  0  0  0  0
   10.8520    4.2350    0.0000 C   0  0  0  0  0  0  0  0  0  0  0  0
    5.9000    6.2960    0.0000 N   0  0  0  0  0  0  0  0  0  0  0  0
    5.9620    7.7710    0.0000 C   0  0  0  0  0  0  0  0  0  0  0  0
    7.1190    8.7250    0.0000 C   0  0  0  0  0  0  0  0  0  0  0  0
    6.8700   10.2040    0.0000 C   0  0  0  0  0  0  0  0  0  0  0  0
    5.4650   10.7300    0.0000 C   0  0  0  0  0  0  0  0  0  0  0  0
    4.3090    9.7740    0.0000 C   0  0  0  0  0  0  0  0  0  0  0  0
    4.5590    8.2930    0.0000 C   0  0  0  0  0  0  0  0  0  0  0  0
    3.6530    7.1230    0.0000 C   0  0  0  0  0  0  0  0  0  0  0  0
    2.1590    7.1240    0.0000 C   0  0  0  0  0  0  0  0  0  0  0  0
    1.1560    8.2390    0.0000 C   0  0  0  0  0  0  0  0  0  0  0  0
   -0.2150    7.6290    0.0000 N   0  0  0  0  0  0  0  0  0  0  0  0
   -0.0570    6.1350    0.0000 C   0  0  0  0  0  0  0  0  0  0  0  0
   -1.1710    5.1310    0.0000 O   0  0  0  0  0  0  0  0  0  0  0  0
    1.4110    5.8250    0.0000 C   0  0  0  0  0  0  0  0  0  0  0  0
    2.1580    4.5360    0.0000 C   0  0  0  0  0  0  0  0  0  0  0  0
    1.6000    3.1650    0.0000 C   0  0  0  0  0  0  0  0  0  0  0  0
    0.1940    2.6430    0.0000 C   0  0  0  0  0  0  0  0  0  0  0  0
   -0.0550    1.1600    0.0000 C   0  0  0  0  0  0  0  0  0  0  0  0
    1.1020    0.2060    0.0000 C   0  0  0  0  0  0  0  0  0  0  0  0
    2.5070    0.7310    0.0000 C   0  0  0  0  0  0  0  0  0  0  0  0
    2.7560    2.2120    0.0000 C   0  0  0  0  0  0  0  0  0  0  0  0
    4.0010    3.0050    0.0000 N   0  0  0  0  0  0  0  0  0  0  0  0
    3.6640    4.5180    0.0000 C   0  0  0  0  0  0  0  0  0  0  0  0
    4.4180    5.8290    0.0000 C   0  0  0  0  0  0  0  0  0  0  0  0
  1  2  1  0  0  0  0
  3  2  1  6  0  0  0
  3  4  1  0  0  0  0
  3  9  1  0  0  0  0
  4  5  1  0  0  0  0
  5  6  1  0  0  0  0
  5 33  1  6  0  0  0
  6  7  1  0  0  0  0
  7  8  1  1  0  0  0
  7  9  1  0  0  0  0
  7 12  1  0  0  0  0
  9 10  1  6  0  0  0
 10 11  1  0  0  0  0
 12 13  1  0  0  0  0
 12 35  1  0  0  0  0
 13 14  1  0  0  0  0
 13 18  2  0  0  0  0
 14 15  2  0  0  0  0
 15 16  1  0  0  0  0
 16 17  2  0  0  0  0
 17 18  1  0  0  0  0
 18 19  1  0  0  0  0
 19 20  1  0  0  0  0
 19 35  2  0  0  0  0
 20 21  1  0  0  0  0
 20 25  2  0  0  0  0
 21 22  1  0  0  0  0
 22 23  1  0  0  0  0
 23 24  2  0  0  0  0
 23 25  1  0  0  0  0
 25 26  1  0  0  0  0
 26 27  1  0  0  0  0
 26 34  2  0  0  0  0
 27 28  1  0  0  0  0
 27 32  2  0  0  0  0
 28 29  2  0  0  0  0
 29 30  1  0  0  0  0
 30 31  2  0  0  0  0
 31 32  1  0  0  0  0
 32 33  1  0  0  0  0
 33 34  1  0  0  0  0
 34 35  1  0  0  0  0
M  END
>  <Compound name >
CHEMBL388978

$$$$
CHEMBL230011
  MOE2019           2D

 26 29  0  0  0  0  0  0  0  0999 V2000
   12.8990   -3.4560    0.0000 N   0  0  0  0  0  0  0  0  0  0  0  0
   11.6000   -2.7060    0.0000 C   0  0  0  0  0  0  0  0  0  0  0  0
   11.6000   -1.2060    0.0000 N   0  0  0  0  0  0  0  0  0  0  0  0
   10.3010   -0.4560    0.0000 C   0  0  0  0  0  0  0  0  0  0  0  0
   10.3010    1.0440    0.0000 N   0  0  0  0  0  0  0  0  0  0  0  0
    9.0020   -1.2060    0.0000 C   0  0  0  0  0  0  0  0  0  0  0  0
    7.7030   -0.4560    0.0000 N   0  0  0  0  0  0  0  0  0  0  0  0
    6.4040   -1.2060    0.0000 C   0  0  0  0  0  0  0  0  0  0  0  0
    5.1050   -0.4560    0.0000 C   0  0  0  0  0  0  0  0  0  0  0  0
    3.8060   -1.2060    0.0000 C   0  0  0  0  0  0  0  0  0  0  0  0
    2.5070   -0.4560    0.0000 C   0  0  0  0  0  0  0  0  0  0  0  0
    2.5070    1.0440    0.0000 C   0  0  0  0  0  0  0  0  0  0  0  0
    3.8060    1.7940    0.0000 C   0  0  0  0  0  0  0  0  0  0  0  0
    3.8060    3.2940    0.0000 O   0  0  0  0  0  0  0  0  0  0  0  0
    5.1050    1.0440    0.0000 C   0  0  0  0  0  0  0  0  0  0  0  0
    6.4040   -2.7060    0.0000 C   0  0  0  0  0  0  0  0  0  0  0  0
    7.7030   -3.4560    0.0000 N   0  0  0  0  0  0  0  0  0  0  0  0
    9.0020   -2.7060    0.0000 C   0  0  0  0  0  0  0  0  0  0  0  0
   10.3010   -3.4560    0.0000 N   0  0  0  0  0  0  0  0  0  0  0  0
    5.1050   -3.4560    0.0000 C   0  0  0  0  0  0  0  0  0  0  0  0
    3.8060   -2.7060    0.0000 C   0  0  0  0  0  0  0  0  0  0  0  0
    2.5070   -3.4560    0.0000 C   0  0  0  0  0  0  0  0  0  0  0  0
    2.5070   -4.9560    0.0000 C   0  0  0  0  0  0  0  0  0  0  0  0
    3.8060   -5.7060    0.0000 C   0  0  0  0  0  0  0  0  0  0  0  0
    3.8060   -7.2060    0.0000 O   0  0  0  0  0  0  0  0  0  0  0  0
    5.1050   -4.9560    0.0000 C   0  0  0  0  0  0  0  0  0  0  0  0
  1  2  1  0  0  0  0
  2  3  1  0  0  0  0
  2 19  2  0  0  0  0
  3  4  2  0  0  0  0
  4  5  1  0  0  0  0
  4  6  1  0  0  0  0
  6  7  1  0  0  0  0
  6 18  2  0  0  0  0
  7  8  2  0  0  0  0
  8  9  1  0  0  0  0
  8 16  1  0  0  0  0
  9 10  1  0  0  0  0
  9 15  2  0  0  0  0
 10 11  2  0  0  0  0
 11 12  1  0  0  0  0
 12 13  2  0  0  0  0
 13 14  1  0  0  0  0
 13 15  1  0  0  0  0
 16 17  2  0  0  0  0
 16 20  1  0  0  0  0
 17 18  1  0  0  0  0
 18 19  1  0  0  0  0
 20 21  1  0  0  0  0
 20 26  2  0  0  0  0
 21 22  2  0  0  0  0
 22 23  1  0  0  0  0
 23 24  2  0  0  0  0
 24 25  1  0  0  0  0
 24 26  1  0  0  0  0
M  END
>  <Compound name >
CHEMBL230011

$$$$
CHEMBL4062218
  MOE2019           2D

 38 43  0  0  0  0  0  0  0  0999 V2000
   19.2090   -2.2800    0.0000 C   0  0  0  0  0  0  0  0  0  0  0  0
   17.9100   -1.5300    0.0000 N   0  0  0  0  0  0  0  0  0  0  0  0
   17.9100   -0.0300    0.0000 C   0  0  0  0  0  0  0  0  0  0  0  0
   19.2090    0.7200    0.0000 O   0  0  0  0  0  0  0  0  0  0  0  0
   16.6110    0.7200    0.0000 C   0  0  0  0  0  0  0  0  0  0  0  0
   15.3120   -0.0300    0.0000 C   0  0  0  0  0  0  0  0  0  0  0  0
   14.0130    0.7200    0.0000 C   0  0  0  0  0  0  0  0  0  0  0  0
   14.0130    2.2200    0.0000 C   0  0  0  0  0  0  0  0  0  0  0  0
   12.7140    2.9700    0.0000 N   0  0  0  0  0  0  0  0  0  0  0  0
   11.4150    2.2200    0.0000 C   0  0  0  0  0  0  0  0  0  0  0  0
   10.1160    2.9700    0.0000 N   0  0  0  0  0  0  0  0  0  0  0  0
    8.8170    2.2200    0.0000 C   0  0  0  0  0  0  0  0  0  0  0  0
    7.5180    2.9700    0.0000 O   0  0  0  0  0  0  0  0  0  0  0  0
    7.5180    4.4700    0.0000 C   0  0  0  0  0  0  0  0  0  0  0  0
    8.7320    5.3520    0.0000 C   0  0  0  0  0  0  0  0  0  0  0  0
    8.2680    6.7790    0.0000 C   0  0  0  0  0  0  0  0  0  0  0  0
    6.7680    6.7790    0.0000 C   0  0  0  0  0  0  0  0  0  0  0  0
    6.3050    5.3520    0.0000 C   0  0  0  0  0  0  0  0  0  0  0  0
    8.8170    0.7200    0.0000 C   0  0  0  0  0  0  0  0  0  0  0  0
    7.7020   -0.2830    0.0000 C   0  0  0  0  0  0  0  0  0  0  0  0
    8.3130   -1.6540    0.0000 C   0  0  0  0  0  0  0  0  0  0  0  0
    9.8040   -1.4970    0.0000 N   0  0  0  0  0  0  0  0  0  0  0  0
   10.1160   -0.0300    0.0000 C   0  0  0  0  0  0  0  0  0  0  0  0
   11.4150    0.7200    0.0000 N   0  0  0  0  0  0  0  0  0  0  0  0
    6.2350    0.0290    0.0000 C   0  0  0  0  0  0  0  0  0  0  0  0
    5.7720    1.4550    0.0000 C   0  0  0  0  0  0  0  0  0  0  0  0
    4.3050    1.7670    0.0000 C   0  0  0  0  0  0  0  0  0  0  0  0
    3.3010    0.6520    0.0000 C   0  0  0  0  0  0  0  0  0  0  0  0
    1.8010    0.6520    0.0000 N   0  0  0  0  0  0  0  0  0  0  0  0
    1.3370   -0.7740    0.0000 C   0  0  0  0  0  0  0  0  0  0  0  0
   -0.0890   -1.2380    0.0000 C   0  0  0  0  0  0  0  0  0  0  0  0
    2.5510   -1.6560    0.0000 O   0  0  0  0  0  0  0  0  0  0  0  0
    3.7640   -0.7740    0.0000 C   0  0  0  0  0  0  0  0  0  0  0  0
    5.2320   -1.0860    0.0000 C   0  0  0  0  0  0  0  0  0  0  0  0
   15.3120    2.9700    0.0000 C   0  0  0  0  0  0  0  0  0  0  0  0
   15.3120    4.4700    0.0000 O   0  0  0  0  0  0  0  0  0  0  0  0
   16.6110    5.2200    0.0000 C   0  0  0  0  0  0  0  0  0  0  0  0
   16.6110    2.2200    0.0000 C   0  0  0  0  0  0  0  0  0  0  0  0
  1  2  1  0  0  0  0
  2  3  1  0  0  0  0
  3  4  2  0  0  0  0
  3  5  1  0  0  0  0
  5  6  1  0  0  0  0
  5 38  2  0  0  0  0
  6  7  2  0  0  0  0
  7  8  1  0  0  0  0
  8  9  1  0  0  0  0
  8 35  2  0  0  0  0
  9 10  1  0  0  0  0
 10 11  1  0  0  0  0
 10 24  2  0  0  0  0
 11 12  2  0  0  0  0
 12 13  1  0  0  0  0
 12 19  1  0  0  0  0
 13 14  1  0  0  0  0
 14 15  1  0  0  0  0
 14 18  1  0  0  0  0
 15 16  1  0  0  0  0
 16 17  1  0  0  0  0
 17 18  1  0  0  0  0
 19 20  1  0  0  0  0
 19 23  2  0  0  0  0
 20 21  2  0  0  0  0
 20 25  1  0  0  0  0
 21 22  1  0  0  0  0
 22 23  1  0  0  0  0
 23 24  1  0  0  0  0
 25 26  1  0  0  0  0
 25 34  2  0  0  0  0
 26 27  2  0  0  0  0
 27 28  1  0  0  0  0
 28 29  1  0  0  0  0
 28 33  2  0  0  0  0
 29 30  2  0  0  0  0
 30 31  1  0  0  0  0
 30 32  1  0  0  0  0
 32 33  1  0  0  0  0
 33 34  1  0  0  0  0
 35 36  1  0  0  0  0
 35 38  1  0  0  0  0
 36 37  1  0  0  0  0
M  END
>  <Compound name >
CHEMBL4062218

$$$$
CHEMBL464552
  MOE2019           2D

 39 43  0  0  0  0  0  0  0  0999 V2000
   15.1160    5.0200    0.0000 C   0  0  0  0  0  0  0  0  0  0  0  0
   14.3660    6.3190    0.0000 N   0  0  0  0  0  0  0  0  0  0  0  0
   12.8660    6.3190    0.0000 C   0  0  0  0  0  0  0  0  0  0  0  0
   12.1160    5.0200    0.0000 O   0  0  0  0  0  0  0  0  0  0  0  0
   12.1160    7.6180    0.0000 C   0  0  0  0  0  0  0  0  0  0  0  0
   12.8660    8.9170    0.0000 C   0  0  0  0  0  0  0  0  0  0  0  0
   14.3660    8.9170    0.0000 F   0  0  0  0  0  0  0  0  0  0  0  0
   12.1160   10.2160    0.0000 C   0  0  0  0  0  0  0  0  0  0  0  0
   10.6160   10.2160    0.0000 C   0  0  0  0  0  0  0  0  0  0  0  0
    9.8660    8.9170    0.0000 C   0  0  0  0  0  0  0  0  0  0  0  0
   10.6160    7.6180    0.0000 C   0  0  0  0  0  0  0  0  0  0  0  0
    9.8660    6.3190    0.0000 N   0  0  0  0  0  0  0  0  0  0  0  0
    8.3660    6.3190    0.0000 C   0  0  0  0  0  0  0  0  0  0  0  0
    7.6160    7.6180    0.0000 N   0  0  0  0  0  0  0  0  0  0  0  0
    6.1160    7.6180    0.0000 C   0  0  0  0  0  0  0  0  0  0  0  0
    5.3660    8.9170    0.0000 N   0  0  0  0  0  0  0  0  0  0  0  0
    3.8660    8.9170    0.0000 C   0  0  0  0  0  0  0  0  0  0  0  0
    3.1160    7.6180    0.0000 C   0  0  0  0  0  0  0  0  0  0  0  0
    1.6160    7.6180    0.0000 C   0  0  0  0  0  0  0  0  0  0  0  0
    0.6120    6.5030    0.0000 N   0  0  0  0  0  0  0  0  0  0  0  0
   -0.7580    7.1140    0.0000 C   0  0  0  0  0  0  0  0  0  0  0  0
   -0.6010    8.6050    0.0000 C   0  0  0  0  0  0  0  0  0  0  0  0
    0.8660    8.9170    0.0000 C   0  0  0  0  0  0  0  0  0  0  0  0
    1.6160   10.2160    0.0000 C   0  0  0  0  0  0  0  0  0  0  0  0
    3.1160   10.2160    0.0000 C   0  0  0  0  0  0  0  0  0  0  0  0
    3.8660   11.5150    0.0000 O   0  0  0  0  0  0  0  0  0  0  0  0
    3.1160   12.8140    0.0000 C   0  0  0  0  0  0  0  0  0  0  0  0
    0.9240    5.0360    0.0000 C   0  0  0  0  0  0  0  0  0  0  0  0
    2.3510    4.5730    0.0000 O   0  0  0  0  0  0  0  0  0  0  0  0
   -0.1900    4.0320    0.0000 C   0  0  0  0  0  0  0  0  0  0  0  0
    0.1210    2.5650    0.0000 N   0  0  0  0  0  0  0  0  0  0  0  0
    1.5480    2.1020    0.0000 C   0  0  0  0  0  0  0  0  0  0  0  0
   -0.9930    1.5620    0.0000 C   0  0  0  0  0  0  0  0  0  0  0  0
    5.3660    6.3190    0.0000 N   0  0  0  0  0  0  0  0  0  0  0  0
    6.1160    5.0200    0.0000 C   0  0  0  0  0  0  0  0  0  0  0  0
    5.6530    3.5930    0.0000 N   0  0  0  0  0  0  0  0  0  0  0  0
    6.8660    2.7120    0.0000 C   0  0  0  0  0  0  0  0  0  0  0  0
    8.0800    3.5930    0.0000 C   0  0  0  0  0  0  0  0  0  0  0  0
    7.6160    5.0200    0.0000 C   0  0  0  0  0  0  0  0  0  0  0  0
  1  2  1  0  0  0  0
  2  3  1  0  0  0  0
  3  4  2  0  0  0  0
  3  5  1  0  0  0  0
  5  6  1  0  0  0  0
  5 11  2  0  0  0  0
  6  7  1  0  0  0  0
  6  8  2  0  0  0  0
  8  9  1  0  0  0  0
  9 10  2  0  0  0  0
 10 11  1  0  0  0  0
 11 12  1  0  0  0  0
 12 13  1  0  0  0  0
 13 14  1  0  0  0  0
 13 39  2  0  0  0  0
 14 15  2  0  0  0  0
 15 16  1  0  0  0  0
 15 34  1  0  0  0  0
 16 17  1  0  0  0  0
 17 18  1  0  0  0  0
 17 25  2  0  0  0  0
 18 19  2  0  0  0  0
 19 20  1  0  0  0  0
 19 23  1  0  0  0  0
 20 21  1  0  0  0  0
 20 28  1  0  0  0  0
 21 22  1  0  0  0  0
 22 23  1  0  0  0  0
 23 24  2  0  0  0  0
 24 25  1  0  0  0  0
 25 26  1  0  0  0  0
 26 27  1  0  0  0  0
 28 29  2  0  0  0  0
 28 30  1  0  0  0  0
 30 31  1  0  0  0  0
 31 32  1  0  0  0  0
 31 33  1  0  0  0  0
 34 35  2  0  0  0  0
 35 36  1  0  0  0  0
 35 39  1  0  0  0  0
 36 37  1  0  0  0  0
 37 38  2  0  0  0  0
 38 39  1  0  0  0  0
M  END
>  <Compound name >
CHEMBL464552

$$$$
CHEMBL1908397
  MOE2019           2D

 25 28  0  0  0  0  0  0  0  0999 V2000
   -0.6650   -0.6650    0.0000 O   0  0  0  0  0  0  0  0  0  0  0  0
   -0.6650   -2.1650    0.0000 C   0  0  0  0  0  0  0  0  0  0  0  0
   -1.9640   -2.9150    0.0000 N   0  0  0  0  0  0  0  0  0  0  0  0
   -1.9640   -4.4150    0.0000 C   0  0  0  0  0  0  0  0  0  0  0  0
   -3.2630   -5.1650    0.0000 C   0  0  0  0  0  0  0  0  0  0  0  0
   -4.5620   -4.4150    0.0000 N   0  0  0  0  0  0  0  0  0  0  0  0
   -4.5620   -2.9150    0.0000 C   0  0  0  0  0  0  0  0  0  0  0  0
   -3.2630   -2.1650    0.0000 C   0  0  0  0  0  0  0  0  0  0  0  0
    0.6340   -2.9150    0.0000 C   0  0  0  0  0  0  0  0  0  0  0  0
    0.6340   -4.4150    0.0000 C   0  0  0  0  0  0  0  0  0  0  0  0
    1.9330   -5.1650    0.0000 C   0  0  0  0  0  0  0  0  0  0  0  0
    3.2320   -4.4150    0.0000 C   0  0  0  0  0  0  0  0  0  0  0  0
    4.5310   -5.1650    0.0000 C   0  0  0  0  0  0  0  0  0  0  0  0
    5.8300   -4.4150    0.0000 C   0  0  0  0  0  0  0  0  0  0  0  0
    7.1290   -5.1650    0.0000 C   0  0  0  0  0  0  0  0  0  0  0  0
    7.2860   -6.6570    0.0000 N   0  0  0  0  0  0  0  0  0  0  0  0
    8.7530   -6.9690    0.0000 N   0  0  0  0  0  0  0  0  0  0  0  0
    9.5030   -5.6700    0.0000 C   0  0  0  0  0  0  0  0  0  0  0  0
   10.9700   -5.3580    0.0000 C   0  0  0  0  0  0  0  0  0  0  0  0
   11.4340   -3.9310    0.0000 C   0  0  0  0  0  0  0  0  0  0  0  0
   10.4300   -2.8170    0.0000 C   0  0  0  0  0  0  0  0  0  0  0  0
    8.9630   -3.1290    0.0000 C   0  0  0  0  0  0  0  0  0  0  0  0
    8.4990   -4.5550    0.0000 C   0  0  0  0  0  0  0  0  0  0  0  0
    3.2320   -2.9150    0.0000 C   0  0  0  0  0  0  0  0  0  0  0  0
    1.9330   -2.1650    0.0000 C   0  0  0  0  0  0  0  0  0  0  0  0
  1  2  2  0  0  0  0
  2  3  1  0  0  0  0
  2  9  1  0  0  0  0
  3  4  1  0  0  0  0
  3  8  1  0  0  0  0
  4  5  1  0  0  0  0
  5  6  1  0  0  0  0
  6  7  1  0  0  0  0
  7  8  1  0  0  0  0
  9 10  1  0  0  0  0
  9 25  2  0  0  0  0
 10 11  2  0  0  0  0
 11 12  1  0  0  0  0
 12 13  1  0  0  0  0
 12 24  2  0  0  0  0
 13 14  2  0  0  0  0
 14 15  1  0  0  0  0
 15 16  2  0  0  0  0
 15 23  1  0  0  0  0
 16 17  1  0  0  0  0
 17 18  1  0  0  0  0
 18 19  1  0  0  0  0
 18 23  2  0  0  0  0
 19 20  2  0  0  0  0
 20 21  1  0  0  0  0
 21 22  2  0  0  0  0
 22 23  1  0  0  0  0
 24 25  1  0  0  0  0
M  END
>  <Compound name >
CHEMBL1908397

$$$$
CHEMBL1232500
  MOE2019           2D

 16 17  0  0  0  0  0  0  0  0999 V2000
    0.8680    0.7110    0.0000 C   0  0  0  0  0  0  0  0  0  0  0  0
    2.2950    0.2470    0.0000 C   0  0  0  0  0  0  0  0  0  0  0  0
    2.6070   -1.2200    0.0000 N   0  0  0  0  0  0  0  0  0  0  0  0
    3.9770   -1.8300    0.0000 C   0  0  0  0  0  0  0  0  0  0  0  0
    5.2760   -1.0800    0.0000 C   0  0  0  0  0  0  0  0  0  0  0  0
    6.5750   -1.8300    0.0000 C   0  0  0  0  0  0  0  0  0  0  0  0
    7.8740   -1.0800    0.0000 O   0  0  0  0  0  0  0  0  0  0  0  0
    6.5750   -3.3300    0.0000 C   0  0  0  0  0  0  0  0  0  0  0  0
    3.8200   -3.3220    0.0000 S   0  0  0  0  0  0  0  0  0  0  0  0
    2.3530   -3.6340    0.0000 C   0  0  0  0  0  0  0  0  0  0  0  0
    1.6030   -4.9330    0.0000 C   0  0  0  0  0  0  0  0  0  0  0  0
    0.1030   -4.9330    0.0000 C   0  0  0  0  0  0  0  0  0  0  0  0
   -0.6470   -3.6340    0.0000 C   0  0  0  0  0  0  0  0  0  0  0  0
   -2.1470   -3.6340    0.0000 O   0  0  0  0  0  0  0  0  0  0  0  0
    0.1030   -2.3350    0.0000 C   0  0  0  0  0  0  0  0  0  0  0  0
    1.6030   -2.3350    0.0000 C   0  0  0  0  0  0  0  0  0  0  0  0
  1  2  1  0  0  0  0
  2  3  1  0  0  0  0
  3  4  1  0  0  0  0
  3 16  1  0  0  0  0
  4  5  2  0  0  0  0
  4  9  1  0  0  0  0
  5  6  1  0  0  0  0
  6  7  2  0  0  0  0
  6  8  1  0  0  0  0
  9 10  1  0  0  0  0
 10 11  1  0  0  0  0
 10 16  2  0  0  0  0
 11 12  2  0  0  0  0
 12 13  1  0  0  0  0
 13 14  1  0  0  0  0
 13 15  2  0  0  0  0
 15 16  1  0  0  0  0
M  END
>  <Compound name >
CHEMBL1232500

$$$$
CHEMBL1310556
  MOE2019           2D

 22 24  0  0  0  0  0  0  0  0999 V2000
   10.6700   -2.8820    0.0000 C   0  0  0  0  0  0  0  0  0  0  0  0
    9.3740   -2.1270    0.0000 O   0  0  0  0  0  0  0  0  0  0  0  0
    8.0720   -2.8710    0.0000 C   0  0  0  0  0  0  0  0  0  0  0  0
    6.7760   -2.1160    0.0000 C   0  0  0  0  0  0  0  0  0  0  0  0
    5.4740   -2.8610    0.0000 C   0  0  0  0  0  0  0  0  0  0  0  0
    5.4680   -4.3610    0.0000 C   0  0  0  0  0  0  0  0  0  0  0  0
    6.7640   -5.1160    0.0000 C   0  0  0  0  0  0  0  0  0  0  0  0
    6.7580   -6.6160    0.0000 O   0  0  0  0  0  0  0  0  0  0  0  0
    8.0660   -4.3710    0.0000 C   0  0  0  0  0  0  0  0  0  0  0  0
    4.1660   -5.1060    0.0000 C   0  0  0  0  0  0  0  0  0  0  0  0
    4.1600   -6.6060    0.0000 N   0  0  0  0  0  0  0  0  0  0  0  0
    2.8580   -7.3510    0.0000 C   0  0  0  0  0  0  0  0  0  0  0  0
    2.8520   -8.8510    0.0000 N   0  0  0  0  0  0  0  0  0  0  0  0
    1.5620   -6.5960    0.0000 N   0  0  0  0  0  0  0  0  0  0  0  0
    1.5680   -5.0960    0.0000 C   0  0  0  0  0  0  0  0  0  0  0  0
    2.8700   -4.3510    0.0000 C   0  0  0  0  0  0  0  0  0  0  0  0
    2.8760   -2.8510    0.0000 C   0  0  0  0  0  0  0  0  0  0  0  0
    4.0930   -1.9740    0.0000 C   0  0  0  0  0  0  0  0  0  0  0  0
    3.6350   -0.5450    0.0000 S   0  0  0  0  0  0  0  0  0  0  0  0
    2.1350   -0.5390    0.0000 C   0  0  0  0  0  0  0  0  0  0  0  0
    1.2580    0.6780    0.0000 C   0  0  0  0  0  0  0  0  0  0  0  0
    1.6660   -1.9640    0.0000 N   0  0  0  0  0  0  0  0  0  0  0  0
  1  2  1  0  0  0  0
  2  3  1  0  0  0  0
  3  4  1  0  0  0  0
  3  9  2  0  0  0  0
  4  5  2  0  0  0  0
  5  6  1  0  0  0  0
  6  7  2  0  0  0  0
  6 10  1  0  0  0  0
  7  8  1  0  0  0  0
  7  9  1  0  0  0  0
 10 11  1  0  0  0  0
 10 16  2  0  0  0  0
 11 12  2  0  0  0  0
 12 13  1  0  0  0  0
 12 14  1  0  0  0  0
 14 15  2  0  0  0  0
 15 16  1  0  0  0  0
 16 17  1  0  0  0  0
 17 18  2  0  0  0  0
 17 22  1  0  0  0  0
 18 19  1  0  0  0  0
 19 20  1  0  0  0  0
 20 21  1  0  0  0  0
 20 22  2  0  0  0  0
M  END
>  <Compound name >
CHEMBL1310556

$$$$
CHEMBL1450770
  MOE2019           2D

 16 18  0  0  0  0  0  0  0  0999 V2000
    9.6160   -2.4400    0.0000 O   0  0  0  0  0  0  0  0  0  0  0  0
    8.2970   -1.7250    0.0000 C   0  0  0  0  0  0  0  0  0  0  0  0
    8.2580   -0.2250    0.0000 C   0  0  0  0  0  0  0  0  0  0  0  0
    6.9390    0.4900    0.0000 C   0  0  0  0  0  0  0  0  0  0  0  0
    5.6600   -0.2940    0.0000 C   0  0  0  0  0  0  0  0  0  0  0  0
    4.2220    0.1310    0.0000 O   0  0  0  0  0  0  0  0  0  0  0  0
    3.3730   -1.1060    0.0000 C   0  0  0  0  0  0  0  0  0  0  0  0
    1.8730   -1.0780    0.0000 C   0  0  0  0  0  0  0  0  0  0  0  0
    1.2470    0.2850    0.0000 O   0  0  0  0  0  0  0  0  0  0  0  0
    0.9180   -2.2340    0.0000 N   0  0  0  0  0  0  0  0  0  0  0  0
    1.2250   -3.7020    0.0000 C   0  0  0  0  0  0  0  0  0  0  0  0
    2.5640   -4.3790    0.0000 C   0  0  0  0  0  0  0  0  0  0  0  0
    3.9270   -3.7510    0.0000 C   0  0  0  0  0  0  0  0  0  0  0  0
    4.2870   -2.2950    0.0000 C   0  0  0  0  0  0  0  0  0  0  0  0
    5.7000   -1.7940    0.0000 C   0  0  0  0  0  0  0  0  0  0  0  0
    7.0190   -2.5090    0.0000 C   0  0  0  0  0  0  0  0  0  0  0  0
  1  2  1  0  0  0  0
  2  3  1  0  0  0  0
  2 16  2  0  0  0  0
  3  4  2  0  0  0  0
  4  5  1  0  0  0  0
  5  6  1  0  0  0  0
  5 15  2  0  0  0  0
  6  7  1  0  0  0  0
  7  8  1  0  0  0  0
  7 14  2  0  0  0  0
  8  9  2  0  0  0  0
  8 10  1  0  0  0  0
 10 11  1  0  0  0  0
 11 12  1  0  0  0  0
 12 13  1  0  0  0  0
 13 14  1  0  0  0  0
 14 15  1  0  0  0  0
 15 16  1  0  0  0  0
M  END
>  <Compound name >
CHEMBL1450770

$$$$
CHEMBL269538
  MOE2019           2D

 16 18  0  0  0  0  0  0  0  0999 V2000
   10.0310   -4.3670    0.0000 C   0  0  0  0  0  0  0  0  0  0  0  0
    8.7700   -5.1790    0.0000 O   0  0  0  0  0  0  0  0  0  0  0  0
    7.4360   -4.4930    0.0000 C   0  0  0  0  0  0  0  0  0  0  0  0
    7.3640   -2.9940    0.0000 C   0  0  0  0  0  0  0  0  0  0  0  0
    6.0300   -2.3080    0.0000 C   0  0  0  0  0  0  0  0  0  0  0  0
    4.7690   -3.1200    0.0000 C   0  0  0  0  0  0  0  0  0  0  0  0
    4.8410   -4.6180    0.0000 C   0  0  0  0  0  0  0  0  0  0  0  0
    6.1750   -5.3050    0.0000 C   0  0  0  0  0  0  0  0  0  0  0  0
    3.4390   -5.1500    0.0000 N   0  0  0  0  0  0  0  0  0  0  0  0
    2.4990   -3.9810    0.0000 C   0  0  0  0  0  0  0  0  0  0  0  0
    1.0020   -3.8960    0.0000 C   0  0  0  0  0  0  0  0  0  0  0  0
    0.1800   -5.1510    0.0000 C   0  0  0  0  0  0  0  0  0  0  0  0
    0.3260   -2.5570    0.0000 N   0  0  0  0  0  0  0  0  0  0  0  0
    1.1480   -1.3020    0.0000 C   0  0  0  0  0  0  0  0  0  0  0  0
    2.6460   -1.3870    0.0000 C   0  0  0  0  0  0  0  0  0  0  0  0
    3.3210   -2.7260    0.0000 C   0  0  0  0  0  0  0  0  0  0  0  0
  1  2  1  0  0  0  0
  2  3  1  0  0  0  0
  3  4  1  0  0  0  0
  3  8  2  0  0  0  0
  4  5  2  0  0  0  0
  5  6  1  0  0  0  0
  6  7  2  0  0  0  0
  6 16  1  0  0  0  0
  7  8  1  0  0  0  0
  7  9  1  0  0  0  0
  9 10  1  0  0  0  0
 10 11  2  0  0  0  0
 10 16  1  0  0  0  0
 11 12  1  0  0  0  0
 11 13  1  0  0  0  0
 13 14  2  0  0  0  0
 14 15  1  0  0  0  0
 15 16  2  0  0  0  0
M  END
>  <Compound name >
CHEMBL269538

$$$$
CHEMBL300389
  MOE2019           2D

 25 27  0  0  0  0  0  0  0  0999 V2000
   19.8400   -5.3160    0.0000 O   0  0  0  0  0  0  0  0  0  0  0  0
   18.5410   -4.5660    0.0000 C   0  0  0  0  0  0  0  0  0  0  0  0
   17.2420   -5.3160    0.0000 C   0  0  0  0  0  0  0  0  0  0  0  0
   15.9430   -4.5660    0.0000 C   0  0  0  0  0  0  0  0  0  0  0  0
   14.6440   -5.3160    0.0000 N   0  0  0  0  0  0  0  0  0  0  0  0
   13.3450   -4.5660    0.0000 C   0  0  0  0  0  0  0  0  0  0  0  0
   12.0460   -5.3160    0.0000 C   0  0  0  0  0  0  0  0  0  0  0  0
   10.7470   -4.5660    0.0000 C   0  0  0  0  0  0  0  0  0  0  0  0
   10.7470   -3.0660    0.0000 C   0  0  0  0  0  0  0  0  0  0  0  0
   12.0460   -2.3160    0.0000 C   0  0  0  0  0  0  0  0  0  0  0  0
   13.3450   -3.0660    0.0000 N   0  0  0  0  0  0  0  0  0  0  0  0
    9.4480   -5.3160    0.0000 C   0  0  0  0  0  0  0  0  0  0  0  0
    9.4480   -6.8160    0.0000 C   0  0  0  0  0  0  0  0  0  0  0  0
    8.1490   -7.5660    0.0000 C   0  0  0  0  0  0  0  0  0  0  0  0
    6.8500   -6.8160    0.0000 N   0  0  0  0  0  0  0  0  0  0  0  0
    6.8500   -5.3160    0.0000 C   0  0  0  0  0  0  0  0  0  0  0  0
    5.5510   -4.5660    0.0000 N   0  0  0  0  0  0  0  0  0  0  0  0
    4.2520   -5.3160    0.0000 C   0  0  0  0  0  0  0  0  0  0  0  0
    4.2520   -6.8160    0.0000 C   0  0  0  0  0  0  0  0  0  0  0  0
    2.9530   -7.5660    0.0000 C   0  0  0  0  0  0  0  0  0  0  0  0
    1.6540   -6.8160    0.0000 C   0  0  0  0  0  0  0  0  0  0  0  0
    1.6540   -5.3160    0.0000 C   0  0  0  0  0  0  0  0  0  0  0  0
    0.3550   -4.5660    0.0000 Cl  0  0  0  0  0  0  0  0  0  0  0  0
    2.9530   -4.5660    0.0000 C   0  0  0  0  0  0  0  0  0  0  0  0
    8.1490   -4.5660    0.0000 N   0  0  0  0  0  0  0  0  0  0  0  0
  1  2  1  0  0  0  0
  2  3  1  0  0  0  0
  3  4  1  0  0  0  0
  4  5  1  0  0  0  0
  5  6  1  0  0  0  0
  6  7  1  0  0  0  0
  6 11  2  0  0  0  0
  7  8  2  0  0  0  0
  8  9  1  0  0  0  0
  8 12  1  0  0  0  0
  9 10  2  0  0  0  0
 10 11  1  0  0  0  0
 12 13  1  0  0  0  0
 12 25  2  0  0  0  0
 13 14  2  0  0  0  0
 14 15  1  0  0  0  0
 15 16  2  0  0  0  0
 16 17  1  0  0  0  0
 16 25  1  0  0  0  0
 17 18  1  0  0  0  0
 18 19  1  0  0  0  0
 18 24  2  0  0  0  0
 19 20  2  0  0  0  0
 20 21  1  0  0  0  0
 21 22  2  0  0  0  0
 22 23  1  0  0  0  0
 22 24  1  0  0  0  0
M  END
>  <Compound name >
CHEMBL300389

$$$$
CHEMBL3094448
  MOE2019           2D

 34 37  0  0  0  0  0  0  0  0999 V2000
   -2.9780   10.8890    0.0000 C   0  0  0  0  0  0  0  0  0  0  0  0
   -2.2280    9.5900    0.0000 O   0  0  0  0  0  0  0  0  0  0  0  0
   -0.7280    9.5900    0.0000 C   0  0  0  0  0  0  0  0  0  0  0  0
    0.0220   10.8890    0.0000 N   0  0  0  0  0  0  0  0  0  0  0  0
    1.5220   10.8890    0.0000 C   0  0  0  0  0  0  0  0  0  0  0  0
    2.2720    9.5900    0.0000 C   0  0  0  0  0  0  0  0  0  0  0  0
    3.7720    9.5900    0.0000 C   0  0  0  0  0  0  0  0  0  0  0  0
    4.5220    8.2910    0.0000 C   0  0  0  0  0  0  0  0  0  0  0  0
    6.0220    8.2910    0.0000 C   0  0  0  0  0  0  0  0  0  0  0  0
    6.7720    6.9920    0.0000 O   0  0  0  0  0  0  0  0  0  0  0  0
    6.7720    9.5900    0.0000 N   0  0  0  0  0  0  0  0  0  0  0  0
    8.2720    9.5900    0.0000 C   0  0  0  0  0  0  0  0  0  0  0  0
    9.0220    8.2910    0.0000 C   0  0  0  0  0  0  0  0  0  0  0  0
   10.5220    8.2910    0.0000 C   0  0  0  0  0  0  0  0  0  0  0  0
   11.2720    9.5900    0.0000 C   0  0  0  0  0  0  0  0  0  0  0  0
   10.5220   10.8890    0.0000 C   0  0  0  0  0  0  0  0  0  0  0  0
    9.0220   10.8890    0.0000 C   0  0  0  0  0  0  0  0  0  0  0  0
    8.2720   12.1880    0.0000 Cl  0  0  0  0  0  0  0  0  0  0  0  0
   11.2720    6.9920    0.0000 C   0  0  0  0  0  0  0  0  0  0  0  0
   10.5220    5.6930    0.0000 O   0  0  0  0  0  0  0  0  0  0  0  0
   12.7720    6.9920    0.0000 N   0  0  0  0  0  0  0  0  0  0  0  0
   13.5220    5.6930    0.0000 C   0  0  0  0  0  0  0  0  0  0  0  0
   15.0220    5.6930    0.0000 C   0  0  0  0  0  0  0  0  0  0  0  0
   15.7720    6.9920    0.0000 C   0  0  0  0  0  0  0  0  0  0  0  0
   17.2720    6.9920    0.0000 C   0  0  0  0  0  0  0  0  0  0  0  0
   18.0220    5.6930    0.0000 C   0  0  0  0  0  0  0  0  0  0  0  0
   17.2720    4.3940    0.0000 C   0  0  0  0  0  0  0  0  0  0  0  0
   18.0220    3.0950    0.0000 Cl  0  0  0  0  0  0  0  0  0  0  0  0
   15.7720    4.3940    0.0000 C   0  0  0  0  0  0  0  0  0  0  0  0
    3.7720    6.9920    0.0000 C   0  0  0  0  0  0  0  0  0  0  0  0
    4.5220    5.6930    0.0000 O   0  0  0  0  0  0  0  0  0  0  0  0
    2.2720    6.9920    0.0000 N   0  0  0  0  0  0  0  0  0  0  0  0
    1.5220    8.2910    0.0000 C   0  0  0  0  0  0  0  0  0  0  0  0
    0.0220    8.2910    0.0000 N   0  0  0  0  0  0  0  0  0  0  0  0
  1  2  1  0  0  0  0
  2  3  1  0  0  0  0
  3  4  1  0  0  0  0
  3 34  2  0  0  0  0
  4  5  2  0  0  0  0
  5  6  1  0  0  0  0
  6  7  1  0  0  0  0
  6 33  2  0  0  0  0
  7  8  2  0  0  0  0
  8  9  1  0  0  0  0
  8 30  1  0  0  0  0
  9 10  2  0  0  0  0
  9 11  1  0  0  0  0
 11 12  1  0  0  0  0
 12 13  1  0  0  0  0
 12 17  2  0  0  0  0
 13 14  2  0  0  0  0
 14 15  1  0  0  0  0
 14 19  1  0  0  0  0
 15 16  2  0  0  0  0
 16 17  1  0  0  0  0
 17 18  1  0  0  0  0
 19 20  2  0  0  0  0
 19 21  1  0  0  0  0
 21 22  1  0  0  0  0
 22 23  1  0  0  0  0
 23 24  1  0  0  0  0
 23 29  2  0  0  0  0
 24 25  2  0  0  0  0
 25 26  1  0  0  0  0
 26 27  2  0  0  0  0
 27 28  1  0  0  0  0
 27 29  1  0  0  0  0
 30 31  2  0  0  0  0
 30 32  1  0  0  0  0
 32 33  1  0  0  0  0
 33 34  1  0  0  0  0
M  END
>  <Compound name >
CHEMBL3094448

$$$$
CHEMBL3421968
  MOE2019           2D

 32 36  0  0  0  0  0  0  0  0999 V2000
   10.1040    4.3690    0.0000 C   0  0  0  0  0  0  0  0  0  0  0  0
    8.8070    3.6160    0.0000 O   0  0  0  0  0  0  0  0  0  0  0  0
    8.8110    2.1160    0.0000 C   0  0  0  0  0  0  0  0  0  0  0  0
   10.1130    1.3690    0.0000 C   0  0  0  0  0  0  0  0  0  0  0  0
   10.1170   -0.1310    0.0000 C   0  0  0  0  0  0  0  0  0  0  0  0
    8.8200   -0.8840    0.0000 C   0  0  0  0  0  0  0  0  0  0  0  0
    7.5190   -0.1380    0.0000 C   0  0  0  0  0  0  0  0  0  0  0  0
    7.5140    1.3620    0.0000 C   0  0  0  0  0  0  0  0  0  0  0  0
    6.2130    2.1080    0.0000 N   0  0  0  0  0  0  0  0  0  0  0  0
    4.9160    1.3540    0.0000 C   0  0  0  0  0  0  0  0  0  0  0  0
    4.9210   -0.1460    0.0000 N   0  0  0  0  0  0  0  0  0  0  0  0
    3.6240   -0.9000    0.0000 C   0  0  0  0  0  0  0  0  0  0  0  0
    2.3230   -0.1530    0.0000 C   0  0  0  0  0  0  0  0  0  0  0  0
    2.3180    1.3470    0.0000 C   0  0  0  0  0  0  0  0  0  0  0  0
    3.6150    2.1000    0.0000 N   0  0  0  0  0  0  0  0  0  0  0  0
    1.0170    2.0930    0.0000 C   0  0  0  0  0  0  0  0  0  0  0  0
    0.8560    3.5840    0.0000 C   0  0  0  0  0  0  0  0  0  0  0  0
   -0.6120    3.8920    0.0000 N   0  0  0  0  0  0  0  0  0  0  0  0
   -1.2260    5.2600    0.0000 C   0  0  0  0  0  0  0  0  0  0  0  0
   -1.3580    2.5900    0.0000 C   0  0  0  0  0  0  0  0  0  0  0  0
   -2.8250    2.2740    0.0000 C   0  0  0  0  0  0  0  0  0  0  0  0
   -3.2840    0.8460    0.0000 N   0  0  0  0  0  0  0  0  0  0  0  0
   -2.2770   -0.2660    0.0000 C   0  0  0  0  0  0  0  0  0  0  0  0
   -0.8110    0.0510    0.0000 C   0  0  0  0  0  0  0  0  0  0  0  0
   -0.3510    1.4790    0.0000 C   0  0  0  0  0  0  0  0  0  0  0  0
   11.4180   -0.8770    0.0000 N   0  0  0  0  0  0  0  0  0  0  0  0
   11.4230   -2.3770    0.0000 C   0  0  0  0  0  0  0  0  0  0  0  0
   12.7240   -3.1230    0.0000 C   0  0  0  0  0  0  0  0  0  0  0  0
   14.0210   -2.3690    0.0000 N   0  0  0  0  0  0  0  0  0  0  0  0
   15.3220   -3.1150    0.0000 C   0  0  0  0  0  0  0  0  0  0  0  0
   14.0160   -0.8690    0.0000 C   0  0  0  0  0  0  0  0  0  0  0  0
   12.7150   -0.1230    0.0000 C   0  0  0  0  0  0  0  0  0  0  0  0
  1  2  1  0  0  0  0
  2  3  1  0  0  0  0
  3  4  1  0  0  0  0
  3  8  2  0  0  0  0
  4  5  2  0  0  0  0
  5  6  1  0  0  0  0
  5 26  1  0  0  0  0
  6  7  2  0  0  0  0
  7  8  1  0  0  0  0
  8  9  1  0  0  0  0
  9 10  1  0  0  0  0
 10 11  1  0  0  0  0
 10 15  2  0  0  0  0
 11 12  2  0  0  0  0
 12 13  1  0  0  0  0
 13 14  2  0  0  0  0
 14 15  1  0  0  0  0
 14 16  1  0  0  0  0
 16 17  2  0  0  0  0
 16 25  1  0  0  0  0
 17 18  1  0  0  0  0
 18 19  1  0  0  0  0
 18 20  1  0  0  0  0
 20 21  1  0  0  0  0
 20 25  2  0  0  0  0
 21 22  2  0  0  0  0
 22 23  1  0  0  0  0
 23 24  2  0  0  0  0
 24 25  1  0  0  0  0
 26 27  1  0  0  0  0
 26 32  1  0  0  0  0
 27 28  1  0  0  0  0
 28 29  1  0  0  0  0
 29 30  1  0  0  0  0
 29 31  1  0  0  0  0
 31 32  1  0  0  0  0
M  END
>  <Compound name >
CHEMBL3421968

$$$$
CHEMBL3421980
  MOE2019           2D

 23 26  0  0  0  0  0  0  0  0999 V2000
   -0.7010   -2.9210    0.0000 C   0  0  0  0  0  0  0  0  0  0  0  0
    0.6350   -3.6020    0.0000 C   0  0  0  0  0  0  0  0  0  0  0  0
    0.7140   -5.1000    0.0000 N   0  0  0  0  0  0  0  0  0  0  0  0
    2.0500   -5.7810    0.0000 C   0  0  0  0  0  0  0  0  0  0  0  0
    3.3080   -4.9640    0.0000 C   0  0  0  0  0  0  0  0  0  0  0  0
    3.2300   -3.4670    0.0000 C   0  0  0  0  0  0  0  0  0  0  0  0
    1.8930   -2.7860    0.0000 N   0  0  0  0  0  0  0  0  0  0  0  0
    4.4880   -2.6500    0.0000 C   0  0  0  0  0  0  0  0  0  0  0  0
    5.8880   -3.1870    0.0000 C   0  0  0  0  0  0  0  0  0  0  0  0
    6.8320   -2.0210    0.0000 N   0  0  0  0  0  0  0  0  0  0  0  0
    8.3300   -2.1000    0.0000 C   0  0  0  0  0  0  0  0  0  0  0  0
    9.0110   -3.4360    0.0000 C   0  0  0  0  0  0  0  0  0  0  0  0
    8.1940   -4.6940    0.0000 C   0  0  0  0  0  0  0  0  0  0  0  0
    8.8750   -6.0310    0.0000 C   0  0  0  0  0  0  0  0  0  0  0  0
   10.3730   -6.1090    0.0000 C   0  0  0  0  0  0  0  0  0  0  0  0
   11.1900   -4.8510    0.0000 C   0  0  0  0  0  0  0  0  0  0  0  0
   10.5090   -3.5150    0.0000 C   0  0  0  0  0  0  0  0  0  0  0  0
    6.0150   -0.7630    0.0000 C   0  0  0  0  0  0  0  0  0  0  0  0
    6.4030    0.6860    0.0000 C   0  0  0  0  0  0  0  0  0  0  0  0
    5.3430    1.7460    0.0000 N   0  0  0  0  0  0  0  0  0  0  0  0
    3.8940    1.3580    0.0000 C   0  0  0  0  0  0  0  0  0  0  0  0
    3.5050   -0.0910    0.0000 C   0  0  0  0  0  0  0  0  0  0  0  0
    4.5660   -1.1520    0.0000 C   0  0  0  0  0  0  0  0  0  0  0  0
  1  2  1  0  0  0  0
  2  3  1  0  0  0  0
  2  7  2  0  0  0  0
  3  4  2  0  0  0  0
  4  5  1  0  0  0  0
  5  6  2  0  0  0  0
  6  7  1  0  0  0  0
  6  8  1  0  0  0  0
  8  9  2  0  0  0  0
  8 23  1  0  0  0  0
  9 10  1  0  0  0  0
 10 11  1  0  0  0  0
 10 18  1  0  0  0  0
 11 12  1  0  0  0  0
 12 13  1  0  0  0  0
 12 17  2  0  0  0  0
 13 14  2  0  0  0  0
 14 15  1  0  0  0  0
 15 16  2  0  0  0  0
 16 17  1  0  0  0  0
 18 19  1  0  0  0  0
 18 23  2  0  0  0  0
 19 20  2  0  0  0  0
 20 21  1  0  0  0  0
 21 22  2  0  0  0  0
 22 23  1  0  0  0  0
M  END
>  <Compound name >
CHEMBL3421980

$$$$
CHEMBL409450
  MOE2019           2D

 22 25  0  0  0  0  0  0  0  0999 V2000
    4.7540   -2.7020    0.0000 O   0  0  0  0  0  0  0  0  0  0  0  0
    3.9860   -1.4130    0.0000 N   0  0  0  0  0  0  0  0  0  0  0  0
    4.7190   -0.1040    0.0000 C   0  0  0  0  0  0  0  0  0  0  0  0
    4.0900    1.2580    0.0000 C   0  0  0  0  0  0  0  0  0  0  0  0
    2.6190    1.5500    0.0000 C   0  0  0  0  0  0  0  0  0  0  0  0
    1.9900    2.9120    0.0000 C   0  0  0  0  0  0  0  0  0  0  0  0
    2.7230    4.2210    0.0000 O   0  0  0  0  0  0  0  0  0  0  0  0
    0.5010    2.7350    0.0000 N   0  0  0  0  0  0  0  0  0  0  0  0
    0.2090    1.2640    0.0000 C   0  0  0  0  0  0  0  0  0  0  0  0
   -1.0800    0.4960    0.0000 C   0  0  0  0  0  0  0  0  0  0  0  0
   -1.0600   -1.0040    0.0000 C   0  0  0  0  0  0  0  0  0  0  0  0
   -2.3490   -1.7710    0.0000 Br  0  0  0  0  0  0  0  0  0  0  0  0
    0.2490   -1.7360    0.0000 C   0  0  0  0  0  0  0  0  0  0  0  0
    1.5380   -0.9690    0.0000 C   0  0  0  0  0  0  0  0  0  0  0  0
    1.5180    0.5310    0.0000 C   0  0  0  0  0  0  0  0  0  0  0  0
    5.1910    2.2770    0.0000 N   0  0  0  0  0  0  0  0  0  0  0  0
    6.5000    1.5440    0.0000 C   0  0  0  0  0  0  0  0  0  0  0  0
    7.9200    2.0270    0.0000 C   0  0  0  0  0  0  0  0  0  0  0  0
    9.0490    1.0380    0.0000 C   0  0  0  0  0  0  0  0  0  0  0  0
    8.7570   -0.4330    0.0000 C   0  0  0  0  0  0  0  0  0  0  0  0
    7.3360   -0.9160    0.0000 C   0  0  0  0  0  0  0  0  0  0  0  0
    6.2080    0.0730    0.0000 C   0  0  0  0  0  0  0  0  0  0  0  0
  1  2  1  0  0  0  0
  2  3  2  0  0  0  0
  3  4  1  0  0  0  0
  3 22  1  0  0  0  0
  4  5  2  0  0  0  0
  4 16  1  0  0  0  0
  5  6  1  0  0  0  0
  5 15  1  0  0  0  0
  6  7  2  0  0  0  0
  6  8  1  0  0  0  0
  8  9  1  0  0  0  0
  9 10  2  0  0  0  0
  9 15  1  0  0  0  0
 10 11  1  0  0  0  0
 11 12  1  0  0  0  0
 11 13  2  0  0  0  0
 13 14  1  0  0  0  0
 14 15  2  0  0  0  0
 16 17  1  0  0  0  0
 17 18  1  0  0  0  0
 17 22  2  0  0  0  0
 18 19  2  0  0  0  0
 19 20  1  0  0  0  0
 20 21  2  0  0  0  0
 21 22  1  0  0  0  0
M  END
>  <Compound name >
CHEMBL409450

$$$$
CHEMBL568150
  MOE2019           2D

 18 20  0  0  0  0  0  0  0  0999 V2000
   -0.4440   -0.6870    0.0000 O   0  0  0  0  0  0  0  0  0  0  0  0
    0.1740   -2.0540    0.0000 C   0  0  0  0  0  0  0  0  0  0  0  0
   -0.5690   -3.3570    0.0000 N   0  0  0  0  0  0  0  0  0  0  0  0
    0.4400   -4.4670    0.0000 C   0  0  0  0  0  0  0  0  0  0  0  0
    0.1360   -5.9360    0.0000 O   0  0  0  0  0  0  0  0  0  0  0  0
    1.8070   -3.8490    0.0000 C   0  0  0  0  0  0  0  0  0  0  0  0
    3.1100   -4.5920    0.0000 C   0  0  0  0  0  0  0  0  0  0  0  0
    4.4050   -3.8360    0.0000 C   0  0  0  0  0  0  0  0  0  0  0  0
    4.3970   -2.3360    0.0000 C   0  0  0  0  0  0  0  0  0  0  0  0
    5.6920   -1.5790    0.0000 C   0  0  0  0  0  0  0  0  0  0  0  0
    6.9950   -2.3220    0.0000 C   0  0  0  0  0  0  0  0  0  0  0  0
    8.2900   -1.5650    0.0000 N   0  0  0  0  0  0  0  0  0  0  0  0
    9.5930   -2.3080    0.0000 C   0  0  0  0  0  0  0  0  0  0  0  0
    9.6010   -3.8080    0.0000 C   0  0  0  0  0  0  0  0  0  0  0  0
    8.3060   -4.5650    0.0000 N   0  0  0  0  0  0  0  0  0  0  0  0
    7.0030   -3.8220    0.0000 C   0  0  0  0  0  0  0  0  0  0  0  0
    5.7080   -4.5790    0.0000 C   0  0  0  0  0  0  0  0  0  0  0  0
    1.6420   -2.3580    0.0000 S   0  0  0  0  0  0  0  0  0  0  0  0
  1  2  2  0  0  0  0
  2  3  1  0  0  0  0
  2 18  1  0  0  0  0
  3  4  1  0  0  0  0
  4  5  2  0  0  0  0
  4  6  1  0  0  0  0
  6  7  2  0  0  0  0
  6 18  1  0  0  0  0
  7  8  1  0  0  0  0
  8  9  2  0  0  0  0
  8 17  1  0  0  0  0
  9 10  1  0  0  0  0
 10 11  2  0  0  0  0
 11 12  1  0  0  0  0
 11 16  1  0  0  0  0
 12 13  2  0  0  0  0
 13 14  1  0  0  0  0
 14 15  2  0  0  0  0
 15 16  1  0  0  0  0
 16 17  2  0  0  0  0
M  END
>  <Compound name >
CHEMBL568150

$$$$
CHEMBL379218
  MOE2019           2D

 27 30  0  0  1  0  0  0  0  0999 V2000
   -3.7700    8.9960    0.0000 C   0  0  0  0  0  0  0  0  0  0  0  0
   -3.3070    7.5690    0.0000 C   0  0  0  0  0  0  0  0  0  0  0  0
   -4.1880    6.3560    0.0000 N   0  0  0  0  0  0  0  0  0  0  0  0
   -3.3070    5.1420    0.0000 N   0  0  0  0  0  0  0  0  0  0  0  0
   -1.8800    5.6060    0.0000 C   0  0  0  0  0  0  0  0  0  0  0  0
   -0.5810    4.8560    0.0000 C   0  0  0  0  0  0  0  0  0  0  0  0
    0.7180    5.6060    0.0000 C   0  0  0  0  0  0  0  0  0  0  0  0
    0.7180    7.1060    0.0000 C   0  0  0  0  0  0  0  0  0  0  0  0
   -0.5810    7.8560    0.0000 C   0  0  0  0  0  0  0  0  0  0  0  0
   -1.8800    7.1060    0.0000 C   0  0  0  0  0  0  0  0  0  0  0  0
    2.0170    7.8560    0.0000 C   0  0  0  0  0  0  0  0  0  0  0  0
    2.0170    9.3560    0.0000 C   0  0  0  0  0  0  0  0  0  0  0  0
    3.3160   10.1060    0.0000 N   0  0  0  0  0  0  0  0  0  0  0  0
    4.6150    9.3560    0.0000 C   0  0  0  0  0  0  0  0  0  0  0  0
    4.6150    7.8560    0.0000 C   0  0  0  0  0  0  0  0  0  0  0  0
    5.9140    7.1060    0.0000 O   0  0  0  0  0  0  0  0  0  0  0  0
    7.2130    7.8560    0.0000 C   0  0  0  0  0  0  0  0  0  0  0  0
    8.5120    7.1060    0.0000 C   0  0  1  0  0  0  0  0  0  0  0  0
    8.5120    5.6060    0.0000 N   0  0  0  0  0  0  0  0  0  0  0  0
    9.8110    7.8560    0.0000 C   0  0  0  0  0  0  0  0  0  0  0  0
   11.1100    7.1060    0.0000 C   0  0  0  0  0  0  0  0  0  0  0  0
   11.1100    5.6060    0.0000 C   0  0  0  0  0  0  0  0  0  0  0  0
   12.4090    4.8560    0.0000 C   0  0  0  0  0  0  0  0  0  0  0  0
   13.7080    5.6060    0.0000 C   0  0  0  0  0  0  0  0  0  0  0  0
   13.7080    7.1060    0.0000 C   0  0  0  0  0  0  0  0  0  0  0  0
   12.4090    7.8560    0.0000 C   0  0  0  0  0  0  0  0  0  0  0  0
    3.3160    7.1060    0.0000 C   0  0  0  0  0  0  0  0  0  0  0  0
  1  2  1  0  0  0  0
  2  3  2  0  0  0  0
  2 10  1  0  0  0  0
  3  4  1  0  0  0  0
  4  5  1  0  0  0  0
  5  6  1  0  0  0  0
  5 10  2  0  0  0  0
  6  7  2  0  0  0  0
  7  8  1  0  0  0  0
  8  9  2  0  0  0  0
  8 11  1  0  0  0  0
  9 10  1  0  0  0  0
 11 12  1  0  0  0  0
 11 27  2  0  0  0  0
 12 13  2  0  0  0  0
 13 14  1  0  0  0  0
 14 15  2  0  0  0  0
 15 16  1  0  0  0  0
 15 27  1  0  0  0  0
 16 17  1  0  0  0  0
 17 18  1  0  0  0  0
 18 19  1  6  0  0  0
 18 20  1  0  0  0  0
 20 21  1  0  0  0  0
 21 22  1  0  0  0  0
 21 26  2  0  0  0  0
 22 23  2  0  0  0  0
 23 24  1  0  0  0  0
 24 25  2  0  0  0  0
 25 26  1  0  0  0  0
M  END
>  <Compound name >
CHEMBL379218

$$$$
CHEMBL384304
  MOE2019           2D

 30 32  0  0  0  0  0  0  0  0999 V2000
    0.7080    2.6440    0.0000 C   0  0  0  0  0  0  0  0  0  0  0  0
    2.0070    1.8940    0.0000 O   0  0  0  0  0  0  0  0  0  0  0  0
    2.0070    0.3940    0.0000 C   0  0  0  0  0  0  0  0  0  0  0  0
    0.7080   -0.3560    0.0000 C   0  0  0  0  0  0  0  0  0  0  0  0
    0.7080   -1.8560    0.0000 C   0  0  0  0  0  0  0  0  0  0  0  0
    2.0070   -2.6060    0.0000 C   0  0  0  0  0  0  0  0  0  0  0  0
    2.0070   -4.1060    0.0000 F   0  0  0  0  0  0  0  0  0  0  0  0
    3.3060   -1.8560    0.0000 C   0  0  0  0  0  0  0  0  0  0  0  0
    4.6060   -2.6060    0.0000 F   0  0  0  0  0  0  0  0  0  0  0  0
    3.3060   -0.3560    0.0000 C   0  0  0  0  0  0  0  0  0  0  0  0
    4.6060    0.3940    0.0000 C   0  0  0  0  0  0  0  0  0  0  0  0
    4.6060    1.8940    0.0000 O   0  0  0  0  0  0  0  0  0  0  0  0
    5.9050   -0.3560    0.0000 C   0  0  0  0  0  0  0  0  0  0  0  0
    5.9050   -1.8560    0.0000 C   0  0  0  0  0  0  0  0  0  0  0  0
    7.2040   -2.6060    0.0000 N   0  0  0  0  0  0  0  0  0  0  0  0
    8.5030   -1.8560    0.0000 C   0  0  0  0  0  0  0  0  0  0  0  0
    9.8020   -2.6060    0.0000 N   0  0  0  0  0  0  0  0  0  0  0  0
   11.1010   -1.8560    0.0000 C   0  0  0  0  0  0  0  0  0  0  0  0
   11.1010   -0.3560    0.0000 C   0  0  0  0  0  0  0  0  0  0  0  0
   12.4000    0.3940    0.0000 C   0  0  0  0  0  0  0  0  0  0  0  0
   13.6990   -0.3560    0.0000 N   0  0  0  0  0  0  0  0  0  0  0  0
   13.6990   -1.8560    0.0000 C   0  0  0  0  0  0  0  0  0  0  0  0
   12.4000   -2.6060    0.0000 C   0  0  0  0  0  0  0  0  0  0  0  0
   14.9980    0.3940    0.0000 S   0  0  0  0  0  0  0  0  0  0  0  0
   14.2480    1.6930    0.0000 O   0  0  0  0  0  0  0  0  0  0  0  0
   15.7480   -0.9050    0.0000 O   0  0  0  0  0  0  0  0  0  0  0  0
   16.2970    1.1440    0.0000 C   0  0  0  0  0  0  0  0  0  0  0  0
    8.5030   -0.3560    0.0000 N   0  0  0  0  0  0  0  0  0  0  0  0
    7.2040    0.3940    0.0000 C   0  0  0  0  0  0  0  0  0  0  0  0
    7.2040    1.8940    0.0000 N   0  0  0  0  0  0  0  0  0  0  0  0
  1  2  1  0  0  0  0
  2  3  1  0  0  0  0
  3  4  1  0  0  0  0
  3 10  2  0  0  0  0
  4  5  2  0  0  0  0
  5  6  1  0  0  0  0
  6  7  1  0  0  0  0
  6  8  2  0  0  0  0
  8  9  1  0  0  0  0
  8 10  1  0  0  0  0
 10 11  1  0  0  0  0
 11 12  2  0  0  0  0
 11 13  1  0  0  0  0
 13 14  1  0  0  0  0
 13 29  2  0  0  0  0
 14 15  2  0  0  0  0
 15 16  1  0  0  0  0
 16 17  1  0  0  0  0
 16 28  2  0  0  0  0
 17 18  1  0  0  0  0
 18 19  1  0  0  0  0
 18 23  1  0  0  0  0
 19 20  1  0  0  0  0
 20 21  1  0  0  0  0
 21 22  1  0  0  0  0
 21 24  1  0  0  0  0
 22 23  1  0  0  0  0
 24 25  2  0  0  0  0
 24 26  2  0  0  0  0
 24 27  1  0  0  0  0
 28 29  1  0  0  0  0
 29 30  1  0  0  0  0
M  END
>  <Compound name >
CHEMBL384304

$$$$
CHEMBL10
  MOE2019           2D

 27 30  0  0  0  0  0  0  0  0999 V2000
   13.2200    7.5900    0.0000 C   0  0  0  0  0  0  0  0  0  0  0  0
   12.4640    6.2940    0.0000 S   0  0  0  0  0  0  0  0  0  0  0  0
   13.2070    4.9920    0.0000 O   0  0  0  0  0  0  0  0  0  0  0  0
   10.9640    6.3020    0.0000 C   0  0  0  0  0  0  0  0  0  0  0  0
   10.2070    5.0060    0.0000 C   0  0  0  0  0  0  0  0  0  0  0  0
    8.7070    5.0140    0.0000 C   0  0  0  0  0  0  0  0  0  0  0  0
    7.9640    6.3160    0.0000 C   0  0  0  0  0  0  0  0  0  0  0  0
    8.7200    7.6120    0.0000 C   0  0  0  0  0  0  0  0  0  0  0  0
   10.2200    7.6040    0.0000 C   0  0  0  0  0  0  0  0  0  0  0  0
    6.4640    6.3240    0.0000 C   0  0  0  0  0  0  0  0  0  0  0  0
    5.5760    5.1140    0.0000 N   0  0  0  0  0  0  0  0  0  0  0  0
    4.1520    5.5850    0.0000 C   0  0  0  0  0  0  0  0  0  0  0  0
    2.9340    4.7090    0.0000 C   0  0  0  0  0  0  0  0  0  0  0  0
    1.5670    5.3260    0.0000 C   0  0  0  0  0  0  0  0  0  0  0  0
    0.3490    4.4500    0.0000 C   0  0  0  0  0  0  0  0  0  0  0  0
    0.4990    2.9580    0.0000 C   0  0  0  0  0  0  0  0  0  0  0  0
   -0.7190    2.0820    0.0000 F   0  0  0  0  0  0  0  0  0  0  0  0
    1.8660    2.3410    0.0000 C   0  0  0  0  0  0  0  0  0  0  0  0
    3.0840    3.2170    0.0000 C   0  0  0  0  0  0  0  0  0  0  0  0
    4.1590    7.0850    0.0000 C   0  0  0  0  0  0  0  0  0  0  0  0
    5.5880    7.5410    0.0000 N   0  0  0  0  0  0  0  0  0  0  0  0
    2.9500    7.9720    0.0000 C   0  0  0  0  0  0  0  0  0  0  0  0
    3.1140    9.4630    0.0000 C   0  0  0  0  0  0  0  0  0  0  0  0
    1.9050   10.3510    0.0000 C   0  0  0  0  0  0  0  0  0  0  0  0
    0.5320    9.7480    0.0000 N   0  0  0  0  0  0  0  0  0  0  0  0
    0.3680    8.2570    0.0000 C   0  0  0  0  0  0  0  0  0  0  0  0
    1.5770    7.3690    0.0000 C   0  0  0  0  0  0  0  0  0  0  0  0
  1  2  1  0  0  0  0
  2  3  2  0  0  0  0
  2  4  1  0  0  0  0
  4  5  1  0  0  0  0
  4  9  2  0  0  0  0
  5  6  2  0  0  0  0
  6  7  1  0  0  0  0
  7  8  2  0  0  0  0
  7 10  1  0  0  0  0
  8  9  1  0  0  0  0
 10 11  2  0  0  0  0
 10 21  1  0  0  0  0
 11 12  1  0  0  0  0
 12 13  1  0  0  0  0
 12 20  2  0  0  0  0
 13 14  1  0  0  0  0
 13 19  2  0  0  0  0
 14 15  2  0  0  0  0
 15 16  1  0  0  0  0
 16 17  1  0  0  0  0
 16 18  2  0  0  0  0
 18 19  1  0  0  0  0
 20 21  1  0  0  0  0
 20 22  1  0  0  0  0
 22 23  1  0  0  0  0
 22 27  2  0  0  0  0
 23 24  2  0  0  0  0
 24 25  1  0  0  0  0
 25 26  2  0  0  0  0
 26 27  1  0  0  0  0
M  END
>  <Compound name >
CHEMBL10

$$$$
CHEMBL386051
  MOE2019           2D

 29 32  0  0  0  0  0  0  0  0999 V2000
   17.7050    6.8130    0.0000 C   0  0  0  0  0  0  0  0  0  0  0  0
   16.4060    7.5630    0.0000 S   0  0  0  0  0  0  0  0  0  0  0  0
   15.1070    6.8130    0.0000 C   0  0  0  0  0  0  0  0  0  0  0  0
   15.1070    5.3130    0.0000 C   0  0  0  0  0  0  0  0  0  0  0  0
   13.8080    4.5630    0.0000 C   0  0  0  0  0  0  0  0  0  0  0  0
   12.5090    5.3130    0.0000 C   0  0  0  0  0  0  0  0  0  0  0  0
   12.5090    6.8130    0.0000 C   0  0  0  0  0  0  0  0  0  0  0  0
   11.2100    7.5630    0.0000 N   0  0  0  0  0  0  0  0  0  0  0  0
    9.9110    6.8130    0.0000 C   0  0  0  0  0  0  0  0  0  0  0  0
    9.9110    5.3130    0.0000 N   0  0  0  0  0  0  0  0  0  0  0  0
    8.6120    4.5630    0.0000 C   0  0  0  0  0  0  0  0  0  0  0  0
    7.3130    5.3130    0.0000 C   0  0  0  0  0  0  0  0  0  0  0  0
    6.0130    4.5630    0.0000 C   0  0  0  0  0  0  0  0  0  0  0  0
    4.7140    5.3130    0.0000 C   0  0  0  0  0  0  0  0  0  0  0  0
    4.7140    6.8130    0.0000 C   0  0  0  0  0  0  0  0  0  0  0  0
    3.4150    7.5630    0.0000 O   0  0  0  0  0  0  0  0  0  0  0  0
    6.0130    7.5630    0.0000 N   0  0  0  0  0  0  0  0  0  0  0  0
    6.0130    9.0630    0.0000 C   0  0  0  0  0  0  0  0  0  0  0  0
    7.3130    6.8130    0.0000 C   0  0  0  0  0  0  0  0  0  0  0  0
    8.6120    7.5630    0.0000 N   0  0  0  0  0  0  0  0  0  0  0  0
    3.4150    4.5630    0.0000 C   0  0  0  0  0  0  0  0  0  0  0  0
    2.1160    5.3130    0.0000 C   0  0  0  0  0  0  0  0  0  0  0  0
    2.1160    6.8130    0.0000 Cl  0  0  0  0  0  0  0  0  0  0  0  0
    0.8170    4.5630    0.0000 C   0  0  0  0  0  0  0  0  0  0  0  0
    0.8170    3.0630    0.0000 C   0  0  0  0  0  0  0  0  0  0  0  0
    2.1160    2.3130    0.0000 C   0  0  0  0  0  0  0  0  0  0  0  0
    3.4150    3.0630    0.0000 C   0  0  0  0  0  0  0  0  0  0  0  0
    4.7140    2.3130    0.0000 Cl  0  0  0  0  0  0  0  0  0  0  0  0
   13.8080    7.5630    0.0000 C   0  0  0  0  0  0  0  0  0  0  0  0
  1  2  1  0  0  0  0
  2  3  1  0  0  0  0
  3  4  1  0  0  0  0
  3 29  2  0  0  0  0
  4  5  2  0  0  0  0
  5  6  1  0  0  0  0
  6  7  2  0  0  0  0
  7  8  1  0  0  0  0
  7 29  1  0  0  0  0
  8  9  1  0  0  0  0
  9 10  1  0  0  0  0
  9 20  2  0  0  0  0
 10 11  2  0  0  0  0
 11 12  1  0  0  0  0
 12 13  1  0  0  0  0
 12 19  2  0  0  0  0
 13 14  2  0  0  0  0
 14 15  1  0  0  0  0
 14 21  1  0  0  0  0
 15 16  2  0  0  0  0
 15 17  1  0  0  0  0
 17 18  1  0  0  0  0
 17 19  1  0  0  0  0
 19 20  1  0  0  0  0
 21 22  1  0  0  0  0
 21 27  2  0  0  0  0
 22 23  1  0  0  0  0
 22 24  2  0  0  0  0
 24 25  1  0  0  0  0
 25 26  2  0  0  0  0
 26 27  1  0  0  0  0
 27 28  1  0  0  0  0
M  END
>  <Compound name >
CHEMBL386051

$$$$
CHEMBL1213492
  MOE2019           2D

 31 33  0  0  0  0  0  0  0  0999 V2000
   -1.1340   -4.2340    0.0000 C   0  0  0  0  0  0  0  0  0  0  0  0
    0.1650   -4.9840    0.0000 C   0  0  0  0  0  0  0  0  0  0  0  0
    0.1650   -6.4840    0.0000 N   0  0  0  0  0  0  0  0  0  0  0  0
   -1.1340   -7.2340    0.0000 C   0  0  0  0  0  0  0  0  0  0  0  0
   -1.1340   -8.7340    0.0000 C   0  0  0  0  0  0  0  0  0  0  0  0
    1.4640   -7.2340    0.0000 C   0  0  0  0  0  0  0  0  0  0  0  0
    2.7630   -6.4840    0.0000 C   0  0  0  0  0  0  0  0  0  0  0  0
    2.7630   -4.9840    0.0000 C   0  0  0  0  0  0  0  0  0  0  0  0
    4.0620   -4.2340    0.0000 C   0  0  0  0  0  0  0  0  0  0  0  0
    5.3610   -4.9840    0.0000 C   0  0  0  0  0  0  0  0  0  0  0  0
    6.6600   -4.2340    0.0000 C   0  0  0  0  0  0  0  0  0  0  0  0
    7.9590   -4.9840    0.0000 C   0  0  0  0  0  0  0  0  0  0  0  0
    9.2580   -4.2340    0.0000 C   0  0  0  0  0  0  0  0  0  0  0  0
   10.5570   -4.9840    0.0000 O   0  0  0  0  0  0  0  0  0  0  0  0
   11.8560   -4.2340    0.0000 C   0  0  0  0  0  0  0  0  0  0  0  0
   11.8560   -2.7340    0.0000 O   0  0  0  0  0  0  0  0  0  0  0  0
   13.1550   -4.9840    0.0000 N   0  0  0  0  0  0  0  0  0  0  0  0
   14.4540   -4.2340    0.0000 C   0  0  0  0  0  0  0  0  0  0  0  0
   14.4540   -2.7340    0.0000 C   0  0  0  0  0  0  0  0  0  0  0  0
   15.7530   -1.9840    0.0000 C   0  0  0  0  0  0  0  0  0  0  0  0
   17.0520   -2.7340    0.0000 C   0  0  0  0  0  0  0  0  0  0  0  0
   17.0520   -4.2340    0.0000 C   0  0  0  0  0  0  0  0  0  0  0  0
   15.7530   -4.9840    0.0000 C   0  0  0  0  0  0  0  0  0  0  0  0
   18.3510   -1.9840    0.0000 C   0  0  0  0  0  0  0  0  0  0  0  0
   18.3510   -0.4840    0.0000 O   0  0  0  0  0  0  0  0  0  0  0  0
   19.6500   -2.7340    0.0000 N   0  0  0  0  0  0  0  0  0  0  0  0
   20.9490   -1.9840    0.0000 O   0  0  0  0  0  0  0  0  0  0  0  0
    7.9590   -6.4840    0.0000 C   0  0  0  0  0  0  0  0  0  0  0  0
    6.6600   -7.2340    0.0000 C   0  0  0  0  0  0  0  0  0  0  0  0
    5.3610   -6.4840    0.0000 C   0  0  0  0  0  0  0  0  0  0  0  0
    4.0620   -7.2340    0.0000 C   0  0  0  0  0  0  0  0  0  0  0  0
  1  2  1  0  0  0  0
  2  3  1  0  0  0  0
  3  4  1  0  0  0  0
  3  6  1  0  0  0  0
  4  5  1  0  0  0  0
  6  7  1  0  0  0  0
  7  8  1  0  0  0  0
  7 31  2  0  0  0  0
  8  9  2  0  0  0  0
  9 10  1  0  0  0  0
 10 11  1  0  0  0  0
 10 30  2  0  0  0  0
 11 12  2  0  0  0  0
 12 13  1  0  0  0  0
 12 28  1  0  0  0  0
 13 14  1  0  0  0  0
 14 15  1  0  0  0  0
 15 16  2  0  0  0  0
 15 17  1  0  0  0  0
 17 18  1  0  0  0  0
 18 19  1  0  0  0  0
 18 23  2  0  0  0  0
 19 20  2  0  0  0  0
 20 21  1  0  0  0  0
 21 22  2  0  0  0  0
 21 24  1  0  0  0  0
 22 23  1  0  0  0  0
 24 25  2  0  0  0  0
 24 26  1  0  0  0  0
 26 27  1  0  0  0  0
 28 29  2  0  0  0  0
 29 30  1  0  0  0  0
 30 31  1  0  0  0  0
M  END
>  <Compound name >
CHEMBL1213492

$$$$
CHEMBL1851943
  MOE2019           2D

 26 27  0  0  0  0  0  0  0  0999 V2000
    1.6110   10.4810    0.0000 C   0  0  0  0  0  0  0  0  0  0  0  0
    1.6040    8.9810    0.0000 C   0  0  0  0  0  0  0  0  0  0  0  0
    2.8990    8.2240    0.0000 C   0  0  0  0  0  0  0  0  0  0  0  0
    2.8920    6.7240    0.0000 C   0  0  0  0  0  0  0  0  0  0  0  0
    4.1870    5.9680    0.0000 C   0  0  0  0  0  0  0  0  0  0  0  0
    5.5610    6.5720    0.0000 N   0  0  0  0  0  0  0  0  0  0  0  0
    6.5590    5.4520    0.0000 C   0  0  0  0  0  0  0  0  0  0  0  0
    8.0590    5.4450    0.0000 C   0  0  0  0  0  0  0  0  0  0  0  0
    8.8030    4.1420    0.0000 C   0  0  0  0  0  0  0  0  0  0  0  0
   10.3030    4.1350    0.0000 C   0  0  0  0  0  0  0  0  0  0  0  0
   11.0590    5.4300    0.0000 C   0  0  0  0  0  0  0  0  0  0  0  0
   12.5590    5.4230    0.0000 C   0  0  0  0  0  0  0  0  0  0  0  0
   13.3030    4.1200    0.0000 O   0  0  0  0  0  0  0  0  0  0  0  0
   13.3150    6.7180    0.0000 N   0  0  0  0  0  0  0  0  0  0  0  0
   14.8150    6.7110    0.0000 O   0  0  0  0  0  0  0  0  0  0  0  0
    8.0460    2.8470    0.0000 C   0  0  0  0  0  0  0  0  0  0  0  0
    6.5460    2.8540    0.0000 C   0  0  0  0  0  0  0  0  0  0  0  0
    5.8030    4.1570    0.0000 C   0  0  0  0  0  0  0  0  0  0  0  0
    4.3370    4.4760    0.0000 N   0  0  0  0  0  0  0  0  0  0  0  0
    3.2170    3.4770    0.0000 C   0  0  0  0  0  0  0  0  0  0  0  0
    3.5220    2.0090    0.0000 C   0  0  0  0  0  0  0  0  0  0  0  0
    2.4030    1.0100    0.0000 N   0  0  0  0  0  0  0  0  0  0  0  0
    0.9780    1.4810    0.0000 C   0  0  0  0  0  0  0  0  0  0  0  0
   -0.1410    0.4830    0.0000 C   0  0  0  0  0  0  0  0  0  0  0  0
    2.7070   -0.4580    0.0000 C   0  0  0  0  0  0  0  0  0  0  0  0
    1.5880   -1.4570    0.0000 C   0  0  0  0  0  0  0  0  0  0  0  0
  1  2  1  0  0  0  0
  2  3  1  0  0  0  0
  3  4  1  0  0  0  0
  4  5  1  0  0  0  0
  5  6  2  0  0  0  0
  5 19  1  0  0  0  0
  6  7  1  0  0  0  0
  7  8  2  0  0  0  0
  7 18  1  0  0  0  0
  8  9  1  0  0  0  0
  9 10  1  0  0  0  0
  9 16  2  0  0  0  0
 10 11  2  0  0  0  0
 11 12  1  0  0  0  0
 12 13  2  0  0  0  0
 12 14  1  0  0  0  0
 14 15  1  0  0  0  0
 16 17  1  0  0  0  0
 17 18  2  0  0  0  0
 18 19  1  0  0  0  0
 19 20  1  0  0  0  0
 20 21  1  0  0  0  0
 21 22  1  0  0  0  0
 22 23  1  0  0  0  0
 22 25  1  0  0  0  0
 23 24  1  0  0  0  0
 25 26  1  0  0  0  0
M  END
>  <Compound name >
CHEMBL1851943

$$$$
CHEMBL2048746
  MOE2019           2D

 24 26  0  0  0  0  0  0  0  0999 V2000
   17.4360   -0.8290    0.0000 O   0  0  0  0  0  0  0  0  0  0  0  0
   15.9430   -0.6860    0.0000 N   0  0  0  0  0  0  0  0  0  0  0  0
   15.0730   -1.9090    0.0000 C   0  0  0  0  0  0  0  0  0  0  0  0
   15.6960   -3.2730    0.0000 O   0  0  0  0  0  0  0  0  0  0  0  0
   13.5800   -1.7660    0.0000 C   0  0  0  0  0  0  0  0  0  0  0  0
   12.7100   -2.9880    0.0000 C   0  0  0  0  0  0  0  0  0  0  0  0
   11.2170   -2.8460    0.0000 C   0  0  0  0  0  0  0  0  0  0  0  0
   10.3470   -4.0680    0.0000 C   0  0  0  0  0  0  0  0  0  0  0  0
    8.8540   -3.9260    0.0000 C   0  0  0  0  0  0  0  0  0  0  0  0
    8.2300   -2.5610    0.0000 C   0  0  0  0  0  0  0  0  0  0  0  0
    9.1000   -1.3390    0.0000 C   0  0  0  0  0  0  0  0  0  0  0  0
    8.2070   -0.1350    0.0000 C   0  0  0  0  0  0  0  0  0  0  0  0
    6.7850   -0.6120    0.0000 C   0  0  0  0  0  0  0  0  0  0  0  0
    6.7990   -2.1120    0.0000 N   0  0  0  0  0  0  0  0  0  0  0  0
    5.5940   -3.0050    0.0000 S   0  0  0  0  0  0  0  0  0  0  0  0
    4.7010   -1.8000    0.0000 O   0  0  0  0  0  0  0  0  0  0  0  0
    6.4880   -4.2100    0.0000 O   0  0  0  0  0  0  0  0  0  0  0  0
    4.3890   -3.8990    0.0000 C   0  0  0  0  0  0  0  0  0  0  0  0
    3.0130   -3.3020    0.0000 C   0  0  0  0  0  0  0  0  0  0  0  0
    1.8080   -4.1950    0.0000 C   0  0  0  0  0  0  0  0  0  0  0  0
    1.9800   -5.6860    0.0000 C   0  0  0  0  0  0  0  0  0  0  0  0
    3.3560   -6.2820    0.0000 C   0  0  0  0  0  0  0  0  0  0  0  0
    4.5610   -5.3890    0.0000 C   0  0  0  0  0  0  0  0  0  0  0  0
   10.5930   -1.4820    0.0000 C   0  0  0  0  0  0  0  0  0  0  0  0
  1  2  1  0  0  0  0
  2  3  1  0  0  0  0
  3  4  2  0  0  0  0
  3  5  1  0  0  0  0
  5  6  2  0  0  0  0
  6  7  1  0  0  0  0
  7  8  2  0  0  0  0
  7 24  1  0  0  0  0
  8  9  1  0  0  0  0
  9 10  2  0  0  0  0
 10 11  1  0  0  0  0
 10 14  1  0  0  0  0
 11 12  1  0  0  0  0
 11 24  2  0  0  0  0
 12 13  2  0  0  0  0
 13 14  1  0  0  0  0
 14 15  1  0  0  0  0
 15 16  2  0  0  0  0
 15 17  2  0  0  0  0
 15 18  1  0  0  0  0
 18 19  1  0  0  0  0
 18 23  2  0  0  0  0
 19 20  2  0  0  0  0
 20 21  1  0  0  0  0
 21 22  2  0  0  0  0
 22 23  1  0  0  0  0
M  END
>  <Compound name >
CHEMBL2048746

$$$$
CHEMBL2103863
  MOE2019           2D

 29 31  0  0  0  0  0  0  0  0999 V2000
   -3.2000    4.4840    0.0000 C   0  0  0  0  0  0  0  0  0  0  0  0
   -2.0860    3.4800    0.0000 N   0  0  0  0  0  0  0  0  0  0  0  0
   -2.3970    2.0130    0.0000 C   0  0  0  0  0  0  0  0  0  0  0  0
   -0.6590    3.9440    0.0000 C   0  0  0  0  0  0  0  0  0  0  0  0
   -0.3470    5.4110    0.0000 C   0  0  0  0  0  0  0  0  0  0  0  0
    1.0230    6.0210    0.0000 C   0  0  0  0  0  0  0  0  0  0  0  0
    0.8660    7.5130    0.0000 O   0  0  0  0  0  0  0  0  0  0  0  0
   -0.6010    7.8250    0.0000 C   0  0  0  0  0  0  0  0  0  0  0  0
   -1.3510    9.1240    0.0000 C   0  0  0  0  0  0  0  0  0  0  0  0
   -2.8510    9.1240    0.0000 C   0  0  0  0  0  0  0  0  0  0  0  0
   -3.6010    7.8250    0.0000 C   0  0  0  0  0  0  0  0  0  0  0  0
   -2.8510    6.5260    0.0000 C   0  0  0  0  0  0  0  0  0  0  0  0
   -1.3510    6.5260    0.0000 C   0  0  0  0  0  0  0  0  0  0  0  0
    2.3220    5.2710    0.0000 C   0  0  0  0  0  0  0  0  0  0  0  0
    2.3220    3.7710    0.0000 O   0  0  0  0  0  0  0  0  0  0  0  0
    3.6210    6.0210    0.0000 N   0  0  0  0  0  0  0  0  0  0  0  0
    4.9200    5.2710    0.0000 C   0  0  0  0  0  0  0  0  0  0  0  0
    6.2190    6.0210    0.0000 C   0  0  0  0  0  0  0  0  0  0  0  0
    7.5180    5.2710    0.0000 O   0  0  0  0  0  0  0  0  0  0  0  0
    8.8170    6.0210    0.0000 C   0  0  0  0  0  0  0  0  0  0  0  0
   10.1160    5.2710    0.0000 C   0  0  0  0  0  0  0  0  0  0  0  0
   11.4160    6.0210    0.0000 C   0  0  0  0  0  0  0  0  0  0  0  0
   11.4160    7.5210    0.0000 C   0  0  0  0  0  0  0  0  0  0  0  0
   10.1160    8.2710    0.0000 C   0  0  0  0  0  0  0  0  0  0  0  0
    8.8170    7.5210    0.0000 C   0  0  0  0  0  0  0  0  0  0  0  0
   12.7150    8.2710    0.0000 C   0  0  0  0  0  0  0  0  0  0  0  0
   12.7150    9.7710    0.0000 O   0  0  0  0  0  0  0  0  0  0  0  0
   14.0140    7.5210    0.0000 N   0  0  0  0  0  0  0  0  0  0  0  0
   15.3130    8.2710    0.0000 O   0  0  0  0  0  0  0  0  0  0  0  0
  1  2  1  0  0  0  0
  2  3  1  0  0  0  0
  2  4  1  0  0  0  0
  4  5  1  0  0  0  0
  5  6  2  0  0  0  0
  5 13  1  0  0  0  0
  6  7  1  0  0  0  0
  6 14  1  0  0  0  0
  7  8  1  0  0  0  0
  8  9  1  0  0  0  0
  8 13  2  0  0  0  0
  9 10  2  0  0  0  0
 10 11  1  0  0  0  0
 11 12  2  0  0  0  0
 12 13  1  0  0  0  0
 14 15  2  0  0  0  0
 14 16  1  0  0  0  0
 16 17  1  0  0  0  0
 17 18  1  0  0  0  0
 18 19  1  0  0  0  0
 19 20  1  0  0  0  0
 20 21  1  0  0  0  0
 20 25  2  0  0  0  0
 21 22  2  0  0  0  0
 22 23  1  0  0  0  0
 23 24  2  0  0  0  0
 23 26  1  0  0  0  0
 24 25  1  0  0  0  0
 26 27  2  0  0  0  0
 26 28  1  0  0  0  0
 28 29  1  0  0  0  0
M  END
>  <Compound name >
CHEMBL2103863

$$$$
CHEMBL235842
  MOE2019           2D

 25 27  0  0  0  0  0  0  0  0999 V2000
   17.3550    0.0000    0.0000 C   0  0  0  0  0  0  0  0  0  0  0  0
   15.8550    0.0000    0.0000 C   0  0  0  0  0  0  0  0  0  0  0  0
   15.1050   -1.2990    0.0000 O   0  0  0  0  0  0  0  0  0  0  0  0
   15.1050    1.2990    0.0000 N   0  0  0  0  0  0  0  0  0  0  0  0
   13.6050    1.2990    0.0000 C   0  0  0  0  0  0  0  0  0  0  0  0
   12.8550    2.5980    0.0000 C   0  0  0  0  0  0  0  0  0  0  0  0
   11.3550    2.5980    0.0000 C   0  0  0  0  0  0  0  0  0  0  0  0
   10.6050    1.2990    0.0000 C   0  0  0  0  0  0  0  0  0  0  0  0
   11.3550    0.0000    0.0000 C   0  0  0  0  0  0  0  0  0  0  0  0
   12.8550    0.0000    0.0000 C   0  0  0  0  0  0  0  0  0  0  0  0
    9.1050    1.2990    0.0000 C   0  0  0  0  0  0  0  0  0  0  0  0
    8.3550    0.0000    0.0000 O   0  0  0  0  0  0  0  0  0  0  0  0
    8.3550    2.5980    0.0000 N   0  0  0  0  0  0  0  0  0  0  0  0
    6.8550    2.5980    0.0000 C   0  0  0  0  0  0  0  0  0  0  0  0
    6.1050    1.2990    0.0000 C   0  0  0  0  0  0  0  0  0  0  0  0
    4.6050    1.2990    0.0000 C   0  0  0  0  0  0  0  0  0  0  0  0
    3.8550    2.5980    0.0000 C   0  0  0  0  0  0  0  0  0  0  0  0
    4.6050    3.8970    0.0000 C   0  0  0  0  0  0  0  0  0  0  0  0
    6.1050    3.8970    0.0000 C   0  0  0  0  0  0  0  0  0  0  0  0
    6.8550    5.1960    0.0000 N   0  0  0  0  0  0  0  0  0  0  0  0
    3.8550    0.0000    0.0000 C   0  0  0  0  0  0  0  0  0  0  0  0
    2.3630   -0.1570    0.0000 C   0  0  0  0  0  0  0  0  0  0  0  0
    2.0520   -1.6240    0.0000 C   0  0  0  0  0  0  0  0  0  0  0  0
    3.3510   -2.3740    0.0000 C   0  0  0  0  0  0  0  0  0  0  0  0
    4.4650   -1.3700    0.0000 S   0  0  0  0  0  0  0  0  0  0  0  0
  1  2  1  0  0  0  0
  2  3  2  0  0  0  0
  2  4  1  0  0  0  0
  4  5  1  0  0  0  0
  5  6  1  0  0  0  0
  5 10  2  0  0  0  0
  6  7  2  0  0  0  0
  7  8  1  0  0  0  0
  8  9  2  0  0  0  0
  8 11  1  0  0  0  0
  9 10  1  0  0  0  0
 11 12  2  0  0  0  0
 11 13  1  0  0  0  0
 13 14  1  0  0  0  0
 14 15  1  0  0  0  0
 14 19  2  0  0  0  0
 15 16  2  0  0  0  0
 16 17  1  0  0  0  0
 16 21  1  0  0  0  0
 17 18  2  0  0  0  0
 18 19  1  0  0  0  0
 19 20  1  0  0  0  0
 21 22  2  0  0  0  0
 21 25  1  0  0  0  0
 22 23  1  0  0  0  0
 23 24  2  0  0  0  0
 24 25  1  0  0  0  0
M  END
>  <Compound name >
CHEMBL235842

$$$$
CHEMBL2364628
  MOE2019           2D

 32 34  0  0  0  0  0  0  0  0999 V2000
   24.8690   -6.6640    0.0000 O   0  0  0  0  0  0  0  0  0  0  0  0
   23.5700   -5.9140    0.0000 N   0  0  0  0  0  0  0  0  0  0  0  0
   23.5700   -4.4140    0.0000 C   0  0  0  0  0  0  0  0  0  0  0  0
   24.8690   -3.6640    0.0000 O   0  0  0  0  0  0  0  0  0  0  0  0
   22.2710   -3.6640    0.0000 C   0  0  0  0  0  0  0  0  0  0  0  0
   20.9720   -4.4140    0.0000 C   0  0  0  0  0  0  0  0  0  0  0  0
   19.6730   -3.6640    0.0000 C   0  0  0  0  0  0  0  0  0  0  0  0
   18.3740   -4.4140    0.0000 C   0  0  0  0  0  0  0  0  0  0  0  0
   17.0750   -3.6640    0.0000 C   0  0  0  0  0  0  0  0  0  0  0  0
   15.7760   -4.4140    0.0000 C   0  0  0  0  0  0  0  0  0  0  0  0
   14.4770   -3.6640    0.0000 N   0  0  0  0  0  0  0  0  0  0  0  0
   13.1780   -4.4140    0.0000 C   0  0  0  0  0  0  0  0  0  0  0  0
   13.1780   -5.9140    0.0000 O   0  0  0  0  0  0  0  0  0  0  0  0
   11.8790   -3.6640    0.0000 C   0  0  0  0  0  0  0  0  0  0  0  0
   11.8790   -2.1640    0.0000 C   0  0  0  0  0  0  0  0  0  0  0  0
   10.5800   -1.4140    0.0000 N   0  0  0  0  0  0  0  0  0  0  0  0
    9.2810   -2.1640    0.0000 C   0  0  0  0  0  0  0  0  0  0  0  0
    9.2810   -3.6640    0.0000 N   0  0  0  0  0  0  0  0  0  0  0  0
   10.5800   -4.4140    0.0000 C   0  0  0  0  0  0  0  0  0  0  0  0
    7.9820   -1.4140    0.0000 N   0  0  0  0  0  0  0  0  0  0  0  0
    7.9820    0.0860    0.0000 C   0  0  0  0  0  0  0  0  0  0  0  0
    6.6830    0.8360    0.0000 C   0  0  0  0  0  0  0  0  0  0  0  0
    6.6830    2.3360    0.0000 C   0  0  0  0  0  0  0  0  0  0  0  0
    7.9820    3.0860    0.0000 C   0  0  0  0  0  0  0  0  0  0  0  0
    9.2810    2.3360    0.0000 C   0  0  0  0  0  0  0  0  0  0  0  0
    9.2810    0.8360    0.0000 C   0  0  0  0  0  0  0  0  0  0  0  0
    6.6830   -2.1640    0.0000 C   0  0  0  0  0  0  0  0  0  0  0  0
    5.3830   -1.4140    0.0000 C   0  0  0  0  0  0  0  0  0  0  0  0
    4.0840   -2.1640    0.0000 C   0  0  0  0  0  0  0  0  0  0  0  0
    4.0840   -3.6640    0.0000 C   0  0  0  0  0  0  0  0  0  0  0  0
    5.3830   -4.4140    0.0000 C   0  0  0  0  0  0  0  0  0  0  0  0
    6.6830   -3.6640    0.0000 C   0  0  0  0  0  0  0  0  0  0  0  0
  1  2  1  0  0  0  0
  2  3  1  0  0  0  0
  3  4  2  0  0  0  0
  3  5  1  0  0  0  0
  5  6  1  0  0  0  0
  6  7  1  0  0  0  0
  7  8  1  0  0  0  0
  8  9  1  0  0  0  0
  9 10  1  0  0  0  0
 10 11  1  0  0  0  0
 11 12  1  0  0  0  0
 12 13  2  0  0  0  0
 12 14  1  0  0  0  0
 14 15  1  0  0  0  0
 14 19  2  0  0  0  0
 15 16  2  0  0  0  0
 16 17  1  0  0  0  0
 17 18  2  0  0  0  0
 17 20  1  0  0  0  0
 18 19  1  0  0  0  0
 20 21  1  0  0  0  0
 20 27  1  0  0  0  0
 21 22  1  0  0  0  0
 21 26  2  0  0  0  0
 22 23  2  0  0  0  0
 23 24  1  0  0  0  0
 24 25  2  0  0  0  0
 25 26  1  0  0  0  0
 27 28  1  0  0  0  0
 27 32  2  0  0  0  0
 28 29  2  0  0  0  0
 29 30  1  0  0  0  0
 30 31  2  0  0  0  0
 31 32  1  0  0  0  0
M  END
>  <Compound name >
CHEMBL2364628

$$$$
CHEMBL3086767
  MOE2019           2D

 20 20  0  0  0  0  0  0  0  0999 V2000
   18.8050    5.0390    0.0000 C   0  0  0  0  0  0  0  0  0  0  0  0
   17.5060    4.2890    0.0000 C   0  0  0  0  0  0  0  0  0  0  0  0
   16.2070    5.0390    0.0000 O   0  0  0  0  0  0  0  0  0  0  0  0
   14.9080    4.2890    0.0000 C   0  0  0  0  0  0  0  0  0  0  0  0
   14.9080    2.7890    0.0000 O   0  0  0  0  0  0  0  0  0  0  0  0
   13.6090    5.0390    0.0000 N   0  0  0  0  0  0  0  0  0  0  0  0
   12.3100    4.2890    0.0000 C   0  0  0  0  0  0  0  0  0  0  0  0
   11.0110    5.0390    0.0000 C   0  0  0  0  0  0  0  0  0  0  0  0
    9.7120    4.2890    0.0000 C   0  0  0  0  0  0  0  0  0  0  0  0
    8.4130    5.0390    0.0000 C   0  0  0  0  0  0  0  0  0  0  0  0
    8.4130    6.5390    0.0000 O   0  0  0  0  0  0  0  0  0  0  0  0
    7.1140    4.2890    0.0000 N   0  0  0  0  0  0  0  0  0  0  0  0
    5.8150    5.0390    0.0000 C   0  0  0  0  0  0  0  0  0  0  0  0
    4.5160    4.2890    0.0000 C   0  0  0  0  0  0  0  0  0  0  0  0
    3.2170    5.0390    0.0000 C   0  0  0  0  0  0  0  0  0  0  0  0
    3.2170    6.5390    0.0000 C   0  0  0  0  0  0  0  0  0  0  0  0
    1.9180    7.2890    0.0000 C   0  0  0  0  0  0  0  0  0  0  0  0
    0.6190    6.5390    0.0000 C   0  0  0  0  0  0  0  0  0  0  0  0
    0.6190    5.0390    0.0000 C   0  0  0  0  0  0  0  0  0  0  0  0
    1.9180    4.2890    0.0000 C   0  0  0  0  0  0  0  0  0  0  0  0
  1  2  1  0  0  0  0
  2  3  1  0  0  0  0
  3  4  1  0  0  0  0
  4  5  2  0  0  0  0
  4  6  1  0  0  0  0
  6  7  1  0  0  0  0
  7  8  1  0  0  0  0
  8  9  1  0  0  0  0
  9 10  1  0  0  0  0
 10 11  2  0  0  0  0
 10 12  1  0  0  0  0
 12 13  1  0  0  0  0
 13 14  1  0  0  0  0
 14 15  1  0  0  0  0
 15 16  1  0  0  0  0
 15 20  2  0  0  0  0
 16 17  2  0  0  0  0
 17 18  1  0  0  0  0
 18 19  2  0  0  0  0
 19 20  1  0  0  0  0
M  END
>  <Compound name >
CHEMBL3086767

$$$$
CHEMBL353581
  MOE2019           2D

 19 19  0  0  0  0  0  0  0  0999 V2000
   17.9610   -4.8130    0.0000 O   0  0  0  0  0  0  0  0  0  0  0  0
   16.6620   -4.0630    0.0000 N   0  0  0  0  0  0  0  0  0  0  0  0
   15.3630   -4.8130    0.0000 C   0  0  0  0  0  0  0  0  0  0  0  0
   15.3630   -6.3130    0.0000 O   0  0  0  0  0  0  0  0  0  0  0  0
   14.0640   -4.0630    0.0000 C   0  0  0  0  0  0  0  0  0  0  0  0
   12.7650   -4.8130    0.0000 C   0  0  0  0  0  0  0  0  0  0  0  0
   11.4660   -4.0630    0.0000 C   0  0  0  0  0  0  0  0  0  0  0  0
   10.1670   -4.8130    0.0000 C   0  0  0  0  0  0  0  0  0  0  0  0
    8.8680   -4.0630    0.0000 C   0  0  0  0  0  0  0  0  0  0  0  0
    7.5690   -4.8130    0.0000 C   0  0  0  0  0  0  0  0  0  0  0  0
    6.2700   -4.0630    0.0000 C   0  0  0  0  0  0  0  0  0  0  0  0
    6.2700   -2.5630    0.0000 O   0  0  0  0  0  0  0  0  0  0  0  0
    4.9710   -4.8130    0.0000 N   0  0  0  0  0  0  0  0  0  0  0  0
    3.6720   -4.0630    0.0000 C   0  0  0  0  0  0  0  0  0  0  0  0
    3.6720   -2.5630    0.0000 C   0  0  0  0  0  0  0  0  0  0  0  0
    2.3730   -1.8130    0.0000 C   0  0  0  0  0  0  0  0  0  0  0  0
    1.0740   -2.5630    0.0000 C   0  0  0  0  0  0  0  0  0  0  0  0
    1.0740   -4.0630    0.0000 N   0  0  0  0  0  0  0  0  0  0  0  0
    2.3730   -4.8130    0.0000 C   0  0  0  0  0  0  0  0  0  0  0  0
  1  2  1  0  0  0  0
  2  3  1  0  0  0  0
  3  4  2  0  0  0  0
  3  5  1  0  0  0  0
  5  6  1  0  0  0  0
  6  7  1  0  0  0  0
  7  8  1  0  0  0  0
  8  9  1  0  0  0  0
  9 10  1  0  0  0  0
 10 11  1  0  0  0  0
 11 12  2  0  0  0  0
 11 13  1  0  0  0  0
 13 14  1  0  0  0  0
 14 15  1  0  0  0  0
 14 19  2  0  0  0  0
 15 16  2  0  0  0  0
 16 17  1  0  0  0  0
 17 18  2  0  0  0  0
 18 19  1  0  0  0  0
M  END
>  <Compound name >
CHEMBL353581

$$$$
CHEMBL356066
  MOE2019           2D

 28 30  0  0  0  0  0  0  0  0999 V2000
    4.3780    8.2110    0.0000 O   0  0  0  0  0  0  0  0  0  0  0  0
    3.6280    6.9120    0.0000 C   0  0  0  0  0  0  0  0  0  0  0  0
    4.3780    5.6130    0.0000 C   0  0  0  0  0  0  0  0  0  0  0  0
    3.6280    4.3140    0.0000 N   0  0  0  0  0  0  0  0  0  0  0  0
    2.1280    4.3140    0.0000 C   0  0  0  0  0  0  0  0  0  0  0  0
    1.3780    3.0150    0.0000 C   0  0  0  0  0  0  0  0  0  0  0  0
   -0.1220    3.0150    0.0000 C   0  0  0  0  0  0  0  0  0  0  0  0
   -1.0040    4.2280    0.0000 C   0  0  0  0  0  0  0  0  0  0  0  0
   -2.4310    3.7650    0.0000 N   0  0  0  0  0  0  0  0  0  0  0  0
   -2.4310    2.2650    0.0000 C   0  0  0  0  0  0  0  0  0  0  0  0
   -3.5450    1.2610    0.0000 C   0  0  0  0  0  0  0  0  0  0  0  0
   -3.2340   -0.2060    0.0000 C   0  0  0  0  0  0  0  0  0  0  0  0
   -1.8070   -0.6700    0.0000 C   0  0  0  0  0  0  0  0  0  0  0  0
   -0.6920    0.3340    0.0000 C   0  0  0  0  0  0  0  0  0  0  0  0
   -1.0040    1.8010    0.0000 C   0  0  0  0  0  0  0  0  0  0  0  0
    4.3780    3.0150    0.0000 C   0  0  0  0  0  0  0  0  0  0  0  0
    5.8780    3.0150    0.0000 C   0  0  0  0  0  0  0  0  0  0  0  0
    6.6280    1.7160    0.0000 C   0  0  0  0  0  0  0  0  0  0  0  0
    8.1280    1.7160    0.0000 C   0  0  0  0  0  0  0  0  0  0  0  0
    8.8780    3.0150    0.0000 C   0  0  0  0  0  0  0  0  0  0  0  0
   10.3780    3.0150    0.0000 C   0  0  0  0  0  0  0  0  0  0  0  0
   11.1280    1.7160    0.0000 C   0  0  0  0  0  0  0  0  0  0  0  0
   12.6280    1.7160    0.0000 C   0  0  0  0  0  0  0  0  0  0  0  0
   13.3780    3.0150    0.0000 O   0  0  0  0  0  0  0  0  0  0  0  0
   13.3780    0.4170    0.0000 N   0  0  0  0  0  0  0  0  0  0  0  0
   14.8780    0.4170    0.0000 O   0  0  0  0  0  0  0  0  0  0  0  0
    8.1280    4.3140    0.0000 C   0  0  0  0  0  0  0  0  0  0  0  0
    6.6280    4.3140    0.0000 C   0  0  0  0  0  0  0  0  0  0  0  0
  1  2  1  0  0  0  0
  2  3  1  0  0  0  0
  3  4  1  0  0  0  0
  4  5  1  0  0  0  0
  4 16  1  0  0  0  0
  5  6  1  0  0  0  0
  6  7  1  0  0  0  0
  7  8  2  0  0  0  0
  7 15  1  0  0  0  0
  8  9  1  0  0  0  0
  9 10  1  0  0  0  0
 10 11  1  0  0  0  0
 10 15  2  0  0  0  0
 11 12  2  0  0  0  0
 12 13  1  0  0  0  0
 13 14  2  0  0  0  0
 14 15  1  0  0  0  0
 16 17  1  0  0  0  0
 17 18  1  0  0  0  0
 17 28  2  0  0  0  0
 18 19  2  0  0  0  0
 19 20  1  0  0  0  0
 20 21  1  0  0  0  0
 20 27  2  0  0  0  0
 21 22  2  0  0  0  0
 22 23  1  0  0  0  0
 23 24  2  0  0  0  0
 23 25  1  0  0  0  0
 25 26  1  0  0  0  0
 27 28  1  0  0  0  0
M  END
>  <Compound name >
CHEMBL356066

$$$$
CHEMBL3622533
  MOE2019           2D

 36 40  0  0  0  0  0  0  0  0999 V2000
   -4.2110    4.2110    0.0000 C   0  0  0  0  0  0  0  0  0  0  0  0
   -4.2110    5.7110    0.0000 O   0  0  0  0  0  0  0  0  0  0  0  0
   -2.9120    6.4610    0.0000 C   0  0  0  0  0  0  0  0  0  0  0  0
   -2.9120    7.9610    0.0000 C   0  0  0  0  0  0  0  0  0  0  0  0
   -1.6130    8.7110    0.0000 C   0  0  0  0  0  0  0  0  0  0  0  0
   -0.3140    7.9610    0.0000 C   0  0  0  0  0  0  0  0  0  0  0  0
   -0.3140    6.4610    0.0000 C   0  0  0  0  0  0  0  0  0  0  0  0
   -1.6130    5.7110    0.0000 N   0  0  0  0  0  0  0  0  0  0  0  0
    0.9850    8.7110    0.0000 C   0  0  0  0  0  0  0  0  0  0  0  0
    0.9850   10.2110    0.0000 N   0  0  0  0  0  0  0  0  0  0  0  0
    2.2840   10.9610    0.0000 C   0  0  0  0  0  0  0  0  0  0  0  0
    2.2840   12.4610    0.0000 N   0  0  0  0  0  0  0  0  0  0  0  0
    0.9850   13.2110    0.0000 C   0  0  0  0  0  0  0  0  0  0  0  0
    0.9850   14.7110    0.0000 C   0  0  0  0  0  0  0  0  0  0  0  0
    2.2840   15.4610    0.0000 O   0  0  0  0  0  0  0  0  0  0  0  0
    3.5830   14.7110    0.0000 C   0  0  0  0  0  0  0  0  0  0  0  0
    3.5830   13.2110    0.0000 C   0  0  0  0  0  0  0  0  0  0  0  0
    3.5830   10.2110    0.0000 C   0  0  0  0  0  0  0  0  0  0  0  0
    5.0100   10.6740    0.0000 S   0  0  0  0  0  0  0  0  0  0  0  0
    5.8920    9.4610    0.0000 C   0  0  0  0  0  0  0  0  0  0  0  0
    7.3920    9.4610    0.0000 C   0  0  0  0  0  0  0  0  0  0  0  0
    8.1420    8.1620    0.0000 N   0  0  0  0  0  0  0  0  0  0  0  0
    7.3920    6.8630    0.0000 C   0  0  0  0  0  0  0  0  0  0  0  0
    9.6420    8.1620    0.0000 C   0  0  0  0  0  0  0  0  0  0  0  0
   10.3920    9.4610    0.0000 N   0  0  0  0  0  0  0  0  0  0  0  0
   11.8920    9.4610    0.0000 C   0  0  0  0  0  0  0  0  0  0  0  0
   12.6420    8.1620    0.0000 C   0  0  0  0  0  0  0  0  0  0  0  0
   11.8920    6.8630    0.0000 C   0  0  0  0  0  0  0  0  0  0  0  0
   10.3920    6.8630    0.0000 N   0  0  0  0  0  0  0  0  0  0  0  0
   14.1420    8.1620    0.0000 C   0  0  0  0  0  0  0  0  0  0  0  0
   14.8920    9.4610    0.0000 O   0  0  0  0  0  0  0  0  0  0  0  0
   14.8920    6.8630    0.0000 N   0  0  0  0  0  0  0  0  0  0  0  0
   16.3920    6.8630    0.0000 O   0  0  0  0  0  0  0  0  0  0  0  0
    5.0100    8.2470    0.0000 C   0  0  0  0  0  0  0  0  0  0  0  0
    3.5830    8.7110    0.0000 C   0  0  0  0  0  0  0  0  0  0  0  0
    2.2840    7.9610    0.0000 N   0  0  0  0  0  0  0  0  0  0  0  0
  1  2  1  0  0  0  0
  2  3  1  0  0  0  0
  3  4  1  0  0  0  0
  3  8  2  0  0  0  0
  4  5  2  0  0  0  0
  5  6  1  0  0  0  0
  6  7  2  0  0  0  0
  6  9  1  0  0  0  0
  7  8  1  0  0  0  0
  9 10  1  0  0  0  0
  9 36  2  0  0  0  0
 10 11  2  0  0  0  0
 11 12  1  0  0  0  0
 11 18  1  0  0  0  0
 12 13  1  0  0  0  0
 12 17  1  0  0  0  0
 13 14  1  0  0  0  0
 14 15  1  0  0  0  0
 15 16  1  0  0  0  0
 16 17  1  0  0  0  0
 18 19  1  0  0  0  0
 18 35  2  0  0  0  0
 19 20  1  0  0  0  0
 20 21  1  0  0  0  0
 20 34  2  0  0  0  0
 21 22  1  0  0  0  0
 22 23  1  0  0  0  0
 22 24  1  0  0  0  0
 24 25  1  0  0  0  0
 24 29  2  0  0  0  0
 25 26  2  0  0  0  0
 26 27  1  0  0  0  0
 27 28  2  0  0  0  0
 27 30  1  0  0  0  0
 28 29  1  0  0  0  0
 30 31  2  0  0  0  0
 30 32  1  0  0  0  0
 32 33  1  0  0  0  0
 34 35  1  0  0  0  0
 35 36  1  0  0  0  0
M  END
>  <Compound name >
CHEMBL3622533

$$$$
CHEMBL3655950
  MOE2019           2D

 20 22  0  0  0  0  0  0  0  0999 V2000
   13.8640    0.1420    0.0000 O   0  0  0  0  0  0  0  0  0  0  0  0
   12.3650    0.1110    0.0000 N   0  0  0  0  0  0  0  0  0  0  0  0
   11.5880    1.3940    0.0000 C   0  0  0  0  0  0  0  0  0  0  0  0
   12.3110    2.7080    0.0000 O   0  0  0  0  0  0  0  0  0  0  0  0
   10.0880    1.3640    0.0000 C   0  0  0  0  0  0  0  0  0  0  0  0
    9.3120    2.6470    0.0000 C   0  0  0  0  0  0  0  0  0  0  0  0
    7.8120    2.6170    0.0000 N   0  0  0  0  0  0  0  0  0  0  0  0
    7.0890    1.3020    0.0000 C   0  0  0  0  0  0  0  0  0  0  0  0
    5.5890    1.2720    0.0000 N   0  0  0  0  0  0  0  0  0  0  0  0
    4.8130    2.5550    0.0000 C   0  0  0  0  0  0  0  0  0  0  0  0
    4.2110    3.9290    0.0000 C   0  0  0  0  0  0  0  0  0  0  0  0
    5.7020    3.7640    0.0000 C   0  0  0  0  0  0  0  0  0  0  0  0
    3.7740    1.4730    0.0000 C   0  0  0  0  0  0  0  0  0  0  0  0
    2.3180    1.8320    0.0000 C   0  0  0  0  0  0  0  0  0  0  0  0
    1.2790    0.7500    0.0000 C   0  0  0  0  0  0  0  0  0  0  0  0
    1.6970   -0.6910    0.0000 C   0  0  0  0  0  0  0  0  0  0  0  0
    3.1530   -1.0500    0.0000 C   0  0  0  0  0  0  0  0  0  0  0  0
    4.1920    0.0330    0.0000 C   0  0  0  0  0  0  0  0  0  0  0  0
    7.8650    0.0190    0.0000 N   0  0  0  0  0  0  0  0  0  0  0  0
    9.3650    0.0500    0.0000 C   0  0  0  0  0  0  0  0  0  0  0  0
  1  2  1  0  0  0  0
  2  3  1  0  0  0  0
  3  4  2  0  0  0  0
  3  5  1  0  0  0  0
  5  6  1  0  0  0  0
  5 20  2  0  0  0  0
  6  7  2  0  0  0  0
  7  8  1  0  0  0  0
  8  9  1  0  0  0  0
  8 19  2  0  0  0  0
  9 10  1  0  0  0  0
 10 11  1  0  0  0  0
 10 12  1  0  0  0  0
 10 13  1  0  0  0  0
 11 12  1  0  0  0  0
 13 14  1  0  0  0  0
 13 18  2  0  0  0  0
 14 15  2  0  0  0  0
 15 16  1  0  0  0  0
 16 17  2  0  0  0  0
 17 18  1  0  0  0  0
 19 20  1  0  0  0  0
M  END
>  <Compound name >
CHEMBL3655950

$$$$
CHEMBL3828396
  MOE2019           2D

 23 25  0  0  0  0  0  0  0  0999 V2000
    5.8640    1.5710    0.0000 N   0  0  0  0  0  0  0  0  0  0  0  0
    4.5650    0.8210    0.0000 C   0  0  0  0  0  0  0  0  0  0  0  0
    3.2660    1.5710    0.0000 C   0  0  0  0  0  0  0  0  0  0  0  0
    1.9670    0.8210    0.0000 C   0  0  0  0  0  0  0  0  0  0  0  0
    1.9670   -0.6790    0.0000 C   0  0  0  0  0  0  0  0  0  0  0  0
    3.2660   -1.4290    0.0000 C   0  0  0  0  0  0  0  0  0  0  0  0
    4.5650   -0.6790    0.0000 C   0  0  0  0  0  0  0  0  0  0  0  0
    5.8640   -1.4290    0.0000 N   0  0  0  0  0  0  0  0  0  0  0  0
    5.8640   -2.9290    0.0000 C   0  0  0  0  0  0  0  0  0  0  0  0
    4.5650   -3.6790    0.0000 O   0  0  0  0  0  0  0  0  0  0  0  0
    7.1630   -3.6790    0.0000 C   0  0  0  0  0  0  0  0  0  0  0  0
    8.4620   -2.9290    0.0000 C   0  0  0  0  0  0  0  0  0  0  0  0
    9.7610   -3.6790    0.0000 C   0  0  0  0  0  0  0  0  0  0  0  0
    9.7610   -5.1790    0.0000 O   0  0  0  0  0  0  0  0  0  0  0  0
    8.4620   -5.9290    0.0000 C   0  0  0  0  0  0  0  0  0  0  0  0
    7.1630   -5.1790    0.0000 C   0  0  0  0  0  0  0  0  0  0  0  0
    0.6670   -1.4290    0.0000 C   0  0  0  0  0  0  0  0  0  0  0  0
   -0.6320   -0.6790    0.0000 C   0  0  0  0  0  0  0  0  0  0  0  0
   -1.9310   -1.4290    0.0000 C   0  0  0  0  0  0  0  0  0  0  0  0
   -1.9310   -2.9290    0.0000 C   0  0  0  0  0  0  0  0  0  0  0  0
   -3.2300   -3.6790    0.0000 F   0  0  0  0  0  0  0  0  0  0  0  0
   -0.6320   -3.6790    0.0000 C   0  0  0  0  0  0  0  0  0  0  0  0
    0.6670   -2.9290    0.0000 C   0  0  0  0  0  0  0  0  0  0  0  0
  1  2  1  0  0  0  0
  2  3  1  0  0  0  0
  2  7  2  0  0  0  0
  3  4  2  0  0  0  0
  4  5  1  0  0  0  0
  5  6  2  0  0  0  0
  5 17  1  0  0  0  0
  6  7  1  0  0  0  0
  7  8  1  0  0  0  0
  8  9  1  0  0  0  0
  9 10  2  0  0  0  0
  9 11  1  0  0  0  0
 11 12  1  0  0  0  0
 11 16  1  0  0  0  0
 12 13  1  0  0  0  0
 13 14  1  0  0  0  0
 14 15  1  0  0  0  0
 15 16  1  0  0  0  0
 17 18  1  0  0  0  0
 17 23  2  0  0  0  0
 18 19  2  0  0  0  0
 19 20  1  0  0  0  0
 20 21  1  0  0  0  0
 20 22  2  0  0  0  0
 22 23  1  0  0  0  0
M  END
>  <Compound name >
CHEMBL3828396

$$$$
CHEMBL48310
  MOE2019           2D

 12 12  0  0  0  0  0  0  0  0999 V2000
    6.8720   -1.9340    0.0000 C   0  0  0  0  0  0  0  0  0  0  0  0
    5.5920   -1.1520    0.0000 C   0  0  0  0  0  0  0  0  0  0  0  0
    5.6290    0.3480    0.0000 C   0  0  0  0  0  0  0  0  0  0  0  0
    4.2740   -1.8690    0.0000 C   0  0  0  0  0  0  0  0  0  0  0  0
    4.3490   -3.3670    0.0000 C   0  0  0  0  0  0  0  0  0  0  0  0
    3.2240   -4.3580    0.0000 C   0  0  0  0  0  0  0  0  0  0  0  0
    1.7470   -4.0970    0.0000 C   0  0  0  0  0  0  0  0  0  0  0  0
    1.0290   -2.7790    0.0000 C   0  0  0  0  0  0  0  0  0  0  0  0
   -0.4690   -2.8530    0.0000 O   0  0  0  0  0  0  0  0  0  0  0  0
    1.6130   -1.3980    0.0000 C   0  0  0  0  0  0  0  0  0  0  0  0
    3.0570   -0.9930    0.0000 C   0  0  0  0  0  0  0  0  0  0  0  0
    0.6210   -0.2720    0.0000 O   0  0  0  0  0  0  0  0  0  0  0  0
  1  2  1  0  0  0  0
  2  3  1  0  0  0  0
  2  4  1  0  0  0  0
  4  5  2  0  0  0  0
  4 11  1  0  0  0  0
  5  6  1  0  0  0  0
  6  7  2  0  0  0  0
  7  8  1  0  0  0  0
  8  9  2  0  0  0  0
  8 10  1  0  0  0  0
 10 11  2  0  0  0  0
 10 12  1  0  0  0  0
M  END
>  <Compound name >
CHEMBL48310

$$$$
CHEMBL598797
  MOE2019           2D

 32 34  0  0  0  0  0  0  0  0999 V2000
    5.8580   -5.8580    0.0000 C   0  0  0  0  0  0  0  0  0  0  0  0
    5.8580   -4.3580    0.0000 O   0  0  0  0  0  0  0  0  0  0  0  0
    4.5590   -3.6080    0.0000 C   0  0  0  0  0  0  0  0  0  0  0  0
    3.2600   -4.3580    0.0000 C   0  0  0  0  0  0  0  0  0  0  0  0
    1.9610   -3.6080    0.0000 C   0  0  0  0  0  0  0  0  0  0  0  0
    0.6620   -4.3580    0.0000 N   0  0  0  0  0  0  0  0  0  0  0  0
   -0.6370   -3.6080    0.0000 C   0  0  0  0  0  0  0  0  0  0  0  0
   -0.6370   -2.1080    0.0000 N   0  0  0  0  0  0  0  0  0  0  0  0
    0.6620   -1.3580    0.0000 C   0  0  0  0  0  0  0  0  0  0  0  0
    0.6620    0.1420    0.0000 N   0  0  0  0  0  0  0  0  0  0  0  0
   -0.6370    0.8920    0.0000 C   0  0  0  0  0  0  0  0  0  0  0  0
   -1.9360    0.1420    0.0000 C   0  0  0  0  0  0  0  0  0  0  0  0
   -3.2350    0.8920    0.0000 C   0  0  0  0  0  0  0  0  0  0  0  0
   -3.2350    2.3920    0.0000 C   0  0  0  0  0  0  0  0  0  0  0  0
   -1.9360    3.1420    0.0000 C   0  0  0  0  0  0  0  0  0  0  0  0
   -0.6370    2.3920    0.0000 C   0  0  0  0  0  0  0  0  0  0  0  0
   -1.9360    4.6420    0.0000 C   0  0  0  0  0  0  0  0  0  0  0  0
   -1.9360    6.1420    0.0000 C   0  0  0  0  0  0  0  0  0  0  0  0
    1.9610   -2.1080    0.0000 C   0  0  0  0  0  0  0  0  0  0  0  0
    3.2600   -1.3580    0.0000 C   0  0  0  0  0  0  0  0  0  0  0  0
    4.5590   -2.1080    0.0000 C   0  0  0  0  0  0  0  0  0  0  0  0
    5.8580   -1.3580    0.0000 O   0  0  0  0  0  0  0  0  0  0  0  0
    7.1580   -2.1080    0.0000 C   0  0  0  0  0  0  0  0  0  0  0  0
    8.4570   -1.3580    0.0000 C   0  0  0  0  0  0  0  0  0  0  0  0
    9.7560   -2.1080    0.0000 C   0  0  0  0  0  0  0  0  0  0  0  0
   11.0550   -1.3580    0.0000 C   0  0  0  0  0  0  0  0  0  0  0  0
   12.3540   -2.1080    0.0000 C   0  0  0  0  0  0  0  0  0  0  0  0
   13.6530   -1.3580    0.0000 C   0  0  0  0  0  0  0  0  0  0  0  0
   14.9520   -2.1080    0.0000 C   0  0  0  0  0  0  0  0  0  0  0  0
   14.9520   -3.6080    0.0000 O   0  0  0  0  0  0  0  0  0  0  0  0
   16.2510   -1.3580    0.0000 N   0  0  0  0  0  0  0  0  0  0  0  0
   17.5500   -2.1080    0.0000 O   0  0  0  0  0  0  0  0  0  0  0  0
  1  2  1  0  0  0  0
  2  3  1  0  0  0  0
  3  4  1  0  0  0  0
  3 21  2  0  0  0  0
  4  5  2  0  0  0  0
  5  6  1  0  0  0  0
  5 19  1  0  0  0  0
  6  7  2  0  0  0  0
  7  8  1  0  0  0  0
  8  9  2  0  0  0  0
  9 10  1  0  0  0  0
  9 19  1  0  0  0  0
 10 11  1  0  0  0  0
 11 12  1  0  0  0  0
 11 16  2  0  0  0  0
 12 13  2  0  0  0  0
 13 14  1  0  0  0  0
 14 15  2  0  0  0  0
 15 16  1  0  0  0  0
 15 17  1  0  0  0  0
 17 18  3  0  0  0  0
 19 20  2  0  0  0  0
 20 21  1  0  0  0  0
 21 22  1  0  0  0  0
 22 23  1  0  0  0  0
 23 24  1  0  0  0  0
 24 25  1  0  0  0  0
 25 26  1  0  0  0  0
 26 27  1  0  0  0  0
 27 28  1  0  0  0  0
 28 29  1  0  0  0  0
 29 30  2  0  0  0  0
 29 31  1  0  0  0  0
 31 32  1  0  0  0  0
M  END
>  <Compound name >
CHEMBL598797

$$$$
CHEMBL96051
  MOE2019           2D

 24 26  0  0  0  0  0  0  0  0999 V2000
   17.4030    4.6630    0.0000 O   0  0  0  0  0  0  0  0  0  0  0  0
   16.1040    3.9130    0.0000 N   0  0  0  0  0  0  0  0  0  0  0  0
   14.8050    4.6630    0.0000 C   0  0  0  0  0  0  0  0  0  0  0  0
   14.8050    6.1630    0.0000 O   0  0  0  0  0  0  0  0  0  0  0  0
   13.5060    3.9130    0.0000 C   0  0  0  0  0  0  0  0  0  0  0  0
   12.2070    4.6630    0.0000 C   0  0  0  0  0  0  0  0  0  0  0  0
   10.9080    3.9130    0.0000 C   0  0  0  0  0  0  0  0  0  0  0  0
    9.6090    4.6630    0.0000 C   0  0  0  0  0  0  0  0  0  0  0  0
    8.3100    3.9130    0.0000 C   0  0  0  0  0  0  0  0  0  0  0  0
    7.0110    4.6630    0.0000 N   0  0  0  0  0  0  0  0  0  0  0  0
    5.7090    3.9120    0.0000 C   0  0  0  0  0  0  0  0  0  0  0  0
    5.7110    2.4120    0.0000 O   0  0  0  0  0  0  0  0  0  0  0  0
    4.4080    4.6600    0.0000 C   0  0  0  0  0  0  0  0  0  0  0  0
    3.1120    3.9150    0.0000 C   0  0  0  0  0  0  0  0  0  0  0  0
    1.8130    4.6650    0.0000 C   0  0  0  0  0  0  0  0  0  0  0  0
    1.8110    6.1620    0.0000 C   0  0  0  0  0  0  0  0  0  0  0  0
    3.1120    6.9140    0.0000 C   0  0  0  0  0  0  0  0  0  0  0  0
    3.1130    8.4150    0.0000 C   0  0  0  0  0  0  0  0  0  0  0  0
    4.4100    9.1610    0.0000 C   0  0  0  0  0  0  0  0  0  0  0  0
    5.7090    8.4120    0.0000 C   0  0  0  0  0  0  0  0  0  0  0  0
    5.7120    6.9160    0.0000 C   0  0  0  0  0  0  0  0  0  0  0  0
    7.0110    6.1660    0.0000 C   0  0  0  0  0  0  0  0  0  0  0  0
    8.3100    6.9160    0.0000 O   0  0  0  0  0  0  0  0  0  0  0  0
    4.4100    6.1640    0.0000 C   0  0  0  0  0  0  0  0  0  0  0  0
  1  2  1  0  0  0  0
  2  3  1  0  0  0  0
  3  4  2  0  0  0  0
  3  5  1  0  0  0  0
  5  6  1  0  0  0  0
  6  7  1  0  0  0  0
  7  8  1  0  0  0  0
  8  9  1  0  0  0  0
  9 10  1  0  0  0  0
 10 11  1  0  0  0  0
 10 22  1  0  0  0  0
 11 12  2  0  0  0  0
 11 13  1  0  0  0  0
 13 14  1  0  0  0  0
 13 24  2  0  0  0  0
 14 15  2  0  0  0  0
 15 16  1  0  0  0  0
 16 17  2  0  0  0  0
 17 18  1  0  0  0  0
 17 24  1  0  0  0  0
 18 19  2  0  0  0  0
 19 20  1  0  0  0  0
 20 21  2  0  0  0  0
 21 22  1  0  0  0  0
 21 24  1  0  0  0  0
 22 23  2  0  0  0  0
M  END
>  <Compound name >
CHEMBL96051

$$$$
CHEMBL99
  MOE2019           2D

 22 22  0  0  1  0  0  0  0  0999 V2000
    1.2520   -1.1340    0.0000 C   0  0  0  0  0  0  0  0  0  0  0  0
    1.2520    0.3660    0.0000 C   0  0  2  0  0  0  0  0  0  0  0  0
    2.5510    1.1160    0.0000 C   0  0  0  0  0  0  0  0  0  0  0  0
    3.8500    0.3660    0.0000 C   0  0  0  0  0  0  0  0  0  0  0  0
    3.8500   -1.1340    0.0000 C   0  0  0  0  0  0  0  0  0  0  0  0
    5.1490    1.1160    0.0000 C   0  0  0  0  0  0  0  0  0  0  0  0
    6.4480    0.3660    0.0000 C   0  0  0  0  0  0  0  0  0  0  0  0
    7.7470    1.1160    0.0000 C   0  0  0  0  0  0  0  0  0  0  0  0
    7.7470    2.6160    0.0000 O   0  0  0  0  0  0  0  0  0  0  0  0
    9.0460    0.3660    0.0000 N   0  0  0  0  0  0  0  0  0  0  0  0
   10.3450    1.1160    0.0000 O   0  0  0  0  0  0  0  0  0  0  0  0
   -0.0470    1.1160    0.0000 C   0  0  0  0  0  0  0  0  0  0  0  0
   -0.0470    2.6160    0.0000 O   0  0  0  0  0  0  0  0  0  0  0  0
   -1.3460    0.3660    0.0000 C   0  0  0  0  0  0  0  0  0  0  0  0
   -1.3460   -1.1340    0.0000 C   0  0  0  0  0  0  0  0  0  0  0  0
   -2.6450   -1.8840    0.0000 C   0  0  0  0  0  0  0  0  0  0  0  0
   -3.9440   -1.1340    0.0000 C   0  0  0  0  0  0  0  0  0  0  0  0
   -3.9440    0.3660    0.0000 C   0  0  0  0  0  0  0  0  0  0  0  0
   -2.6450    1.1160    0.0000 C   0  0  0  0  0  0  0  0  0  0  0  0
   -5.2430   -1.8840    0.0000 N   0  0  0  0  0  0  0  0  0  0  0  0
   -5.2430   -3.3840    0.0000 C   0  0  0  0  0  0  0  0  0  0  0  0
   -6.5420   -1.1340    0.0000 C   0  0  0  0  0  0  0  0  0  0  0  0
  2  1  1  1  0  0  0
  2  3  1  0  0  0  0
  2 12  1  0  0  0  0
  3  4  2  0  0  0  0
  4  5  1  0  0  0  0
  4  6  1  0  0  0  0
  6  7  2  0  0  0  0
  7  8  1  0  0  0  0
  8  9  2  0  0  0  0
  8 10  1  0  0  0  0
 10 11  1  0  0  0  0
 12 13  2  0  0  0  0
 12 14  1  0  0  0  0
 14 15  1  0  0  0  0
 14 19  2  0  0  0  0
 15 16  2  0  0  0  0
 16 17  1  0  0  0  0
 17 18  2  0  0  0  0
 17 20  1  0  0  0  0
 18 19  1  0  0  0  0
 20 21  1  0  0  0  0
 20 22  1  0  0  0  0
M  END
>  <Compound name >
CHEMBL99

$$$$
CHEMBL50444
  MOE2019           2D

 11 10  0  0  0  0  0  0  0  0999 V2000
    0.7500   -1.2990    0.0000 C   0  0  0  0  0  0  0  0  0  0  0  0
    1.5000    0.0000    0.0000 C   0  0  0  0  0  0  0  0  0  0  0  0
    2.2500    1.2990    0.0000 O   0  0  0  0  0  0  0  0  0  0  0  0
    2.7990   -0.7500    0.0000 C   0  0  0  0  0  0  0  0  0  0  0  0
    4.0980    0.0000    0.0000 C   0  0  0  0  0  0  0  0  0  0  0  0
    4.0980    1.5000    0.0000 O   0  0  0  0  0  0  0  0  0  0  0  0
    5.3970   -0.7500    0.0000 O   0  0  0  0  0  0  0  0  0  0  0  0
    0.2010    0.7500    0.0000 C   0  0  0  0  0  0  0  0  0  0  0  0
   -1.0980    0.0000    0.0000 C   0  0  0  0  0  0  0  0  0  0  0  0
   -1.0980   -1.5000    0.0000 O   0  0  0  0  0  0  0  0  0  0  0  0
   -2.3970    0.7500    0.0000 O   0  0  0  0  0  0  0  0  0  0  0  0
  1  2  1  0  0  0  0
  2  3  1  0  0  0  0
  2  4  1  0  0  0  0
  2  8  1  0  0  0  0
  4  5  1  0  0  0  0
  5  6  2  0  0  0  0
  5  7  1  0  0  0  0
  8  9  1  0  0  0  0
  9 10  2  0  0  0  0
  9 11  1  0  0  0  0
M  END
>  <Compound name >
CHEMBL50444

$$$$
CHEMBL192894
  MOE2019           2D

 22 24  0  0  0  0  0  0  0  0999 V2000
   10.7620   -6.6710    0.0000 C   0  0  0  0  0  0  0  0  0  0  0  0
    9.2710   -6.8280    0.0000 O   0  0  0  0  0  0  0  0  0  0  0  0
    8.3890   -5.6140    0.0000 C   0  0  0  0  0  0  0  0  0  0  0  0
    6.8970   -5.7710    0.0000 C   0  0  0  0  0  0  0  0  0  0  0  0
    6.0150   -4.5570    0.0000 C   0  0  0  0  0  0  0  0  0  0  0  0
    6.6260   -3.1870    0.0000 C   0  0  0  0  0  0  0  0  0  0  0  0
    8.1170   -3.0300    0.0000 C   0  0  0  0  0  0  0  0  0  0  0  0
    8.9990   -4.2440    0.0000 C   0  0  0  0  0  0  0  0  0  0  0  0
    5.7440   -1.9740    0.0000 C   0  0  0  0  0  0  0  0  0  0  0  0
    6.2070   -0.5470    0.0000 C   0  0  0  0  0  0  0  0  0  0  0  0
    7.6340   -0.0840    0.0000 C   0  0  0  0  0  0  0  0  0  0  0  0
    4.9940    0.3350    0.0000 N   0  0  0  0  0  0  0  0  0  0  0  0
    3.7800   -0.5470    0.0000 N   0  0  0  0  0  0  0  0  0  0  0  0
    4.2440   -1.9740    0.0000 C   0  0  0  0  0  0  0  0  0  0  0  0
    3.3620   -3.1870    0.0000 C   0  0  0  0  0  0  0  0  0  0  0  0
    3.9720   -4.5570    0.0000 C   0  0  0  0  0  0  0  0  0  0  0  0
    3.0910   -5.7710    0.0000 C   0  0  0  0  0  0  0  0  0  0  0  0
    1.5990   -5.6140    0.0000 C   0  0  0  0  0  0  0  0  0  0  0  0
    0.7170   -6.8280    0.0000 O   0  0  0  0  0  0  0  0  0  0  0  0
    0.9890   -4.2440    0.0000 C   0  0  0  0  0  0  0  0  0  0  0  0
    1.8700   -3.0300    0.0000 C   0  0  0  0  0  0  0  0  0  0  0  0
    1.2600   -1.6600    0.0000 O   0  0  0  0  0  0  0  0  0  0  0  0
  1  2  1  0  0  0  0
  2  3  1  0  0  0  0
  3  4  1  0  0  0  0
  3  8  2  0  0  0  0
  4  5  2  0  0  0  0
  5  6  1  0  0  0  0
  6  7  2  0  0  0  0
  6  9  1  0  0  0  0
  7  8  1  0  0  0  0
  9 10  2  0  0  0  0
  9 14  1  0  0  0  0
 10 11  1  0  0  0  0
 10 12  1  0  0  0  0
 12 13  1  0  0  0  0
 13 14  2  0  0  0  0
 14 15  1  0  0  0  0
 15 16  1  0  0  0  0
 15 21  2  0  0  0  0
 16 17  2  0  0  0  0
 17 18  1  0  0  0  0
 18 19  1  0  0  0  0
 18 20  2  0  0  0  0
 20 21  1  0  0  0  0
 21 22  1  0  0  0  0
M  END
>  <Compound name >
CHEMBL192894

$$$$
CHEMBL200102
  MOE2019           2D

 28 31  0  0  0  0  0  0  0  0999 V2000
    8.3540  -11.6140    0.0000 C   0  0  0  0  0  0  0  0  0  0  0  0
    8.8310  -10.1920    0.0000 C   0  0  0  0  0  0  0  0  0  0  0  0
   10.3010   -9.8940    0.0000 C   0  0  0  0  0  0  0  0  0  0  0  0
    7.8380   -9.0680    0.0000 N   0  0  0  0  0  0  0  0  0  0  0  0
    6.3680   -9.3660    0.0000 C   0  0  0  0  0  0  0  0  0  0  0  0
    5.3750   -8.2420    0.0000 C   0  0  0  0  0  0  0  0  0  0  0  0
    3.9050   -8.5400    0.0000 C   0  0  0  0  0  0  0  0  0  0  0  0
    2.9120   -7.4150    0.0000 N   0  0  0  0  0  0  0  0  0  0  0  0
    1.4190   -7.5580    0.0000 C   0  0  0  0  0  0  0  0  0  0  0  0
    0.6560   -8.8500    0.0000 S   0  0  0  0  0  0  0  0  0  0  0  0
   -0.8440   -8.8360    0.0000 C   0  0  0  0  0  0  0  0  0  0  0  0
   -1.5810   -7.5300    0.0000 C   0  0  0  0  0  0  0  0  0  0  0  0
   -3.0810   -7.5150    0.0000 C   0  0  0  0  0  0  0  0  0  0  0  0
   -4.0740   -6.3910    0.0000 O   0  0  0  0  0  0  0  0  0  0  0  0
   -5.4500   -6.9880    0.0000 C   0  0  0  0  0  0  0  0  0  0  0  0
   -5.3080   -8.4810    0.0000 O   0  0  0  0  0  0  0  0  0  0  0  0
   -3.8430   -8.8070    0.0000 C   0  0  0  0  0  0  0  0  0  0  0  0
   -3.1060  -10.1130    0.0000 C   0  0  0  0  0  0  0  0  0  0  0  0
   -1.6060  -10.1280    0.0000 C   0  0  0  0  0  0  0  0  0  0  0  0
   -0.8680  -11.4340    0.0000 I   0  0  0  0  0  0  0  0  0  0  0  0
    0.8220   -6.1820    0.0000 N   0  0  0  0  0  0  0  0  0  0  0  0
    1.9460   -5.1890    0.0000 C   0  0  0  0  0  0  0  0  0  0  0  0
    1.9600   -3.6890    0.0000 C   0  0  0  0  0  0  0  0  0  0  0  0
    0.6680   -2.9270    0.0000 N   0  0  0  0  0  0  0  0  0  0  0  0
    3.2660   -2.9510    0.0000 N   0  0  0  0  0  0  0  0  0  0  0  0
    4.5580   -3.7140    0.0000 C   0  0  0  0  0  0  0  0  0  0  0  0
    4.5440   -5.2140    0.0000 N   0  0  0  0  0  0  0  0  0  0  0  0
    3.2380   -5.9510    0.0000 C   0  0  0  0  0  0  0  0  0  0  0  0
  1  2  1  0  0  0  0
  2  3  1  0  0  0  0
  2  4  1  0  0  0  0
  4  5  1  0  0  0  0
  5  6  1  0  0  0  0
  6  7  1  0  0  0  0
  7  8  1  0  0  0  0
  8  9  1  0  0  0  0
  8 28  1  0  0  0  0
  9 10  1  0  0  0  0
  9 21  2  0  0  0  0
 10 11  1  0  0  0  0
 11 12  1  0  0  0  0
 11 19  2  0  0  0  0
 12 13  2  0  0  0  0
 13 14  1  0  0  0  0
 13 17  1  0  0  0  0
 14 15  1  0  0  0  0
 15 16  1  0  0  0  0
 16 17  1  0  0  0  0
 17 18  2  0  0  0  0
 18 19  1  0  0  0  0
 19 20  1  0  0  0  0
 21 22  1  0  0  0  0
 22 23  1  0  0  0  0
 22 28  2  0  0  0  0
 23 24  1  0  0  0  0
 23 25  2  0  0  0  0
 25 26  1  0  0  0  0
 26 27  2  0  0  0  0
 27 28  1  0  0  0  0
M  END
>  <Compound name >
CHEMBL200102

$$$$
CHEMBL2332354
  MOE2019           2D

 34 38  0  0  1  0  0  0  0  0999 V2000
    1.5720   -5.8180    0.0000 O   0  0  0  0  0  0  0  0  0  0  0  0
    2.8680   -5.0630    0.0000 C   0  0  0  0  0  0  0  0  0  0  0  0
    2.8620   -3.5630    0.0000 C   0  0  1  0  0  0  0  0  0  0  0  0
    4.1570   -2.8070    0.0000 O   0  0  0  0  0  0  0  0  0  0  0  0
    4.1510   -1.3070    0.0000 C   0  0  1  0  0  0  0  0  0  0  0  0
    5.4470   -0.5520    0.0000 O   0  0  0  0  0  0  0  0  0  0  0  0
    6.7490   -1.2970    0.0000 C   0  0  2  0  0  0  0  0  0  0  0  0
    6.7560   -2.7970    0.0000 O   0  0  0  0  0  0  0  0  0  0  0  0
    8.0580   -3.5410    0.0000 C   0  0  0  0  0  0  0  0  0  0  0  0
    9.3540   -2.7860    0.0000 C   0  0  0  0  0  0  0  0  0  0  0  0
    9.3470   -1.2860    0.0000 C   0  0  1  0  0  0  0  0  0  0  0  0
   10.4580   -0.2780    0.0000 C   0  0  2  0  0  0  0  0  0  0  0  0
   11.9270   -0.5840    0.0000 O   0  0  0  0  0  0  0  0  0  0  0  0
   12.9260    0.5350    0.0000 C   0  0  0  0  0  0  0  0  0  0  0  0
   12.4560    1.9600    0.0000 O   0  0  0  0  0  0  0  0  0  0  0  0
   14.3940    0.2290    0.0000 C   0  0  0  0  0  0  0  0  0  0  0  0
   15.3930    1.3480    0.0000 C   0  0  0  0  0  0  0  0  0  0  0  0
   16.8620    1.0420    0.0000 C   0  0  0  0  0  0  0  0  0  0  0  0
   17.3310   -0.3820    0.0000 C   0  0  0  0  0  0  0  0  0  0  0  0
   18.8000   -0.6880    0.0000 O   0  0  0  0  0  0  0  0  0  0  0  0
   16.3320   -1.5010    0.0000 C   0  0  0  0  0  0  0  0  0  0  0  0
   14.8630   -1.1950    0.0000 C   0  0  0  0  0  0  0  0  0  0  0  0
    9.8420    1.0900    0.0000 C   0  0  2  0  0  0  0  0  0  0  0  0
    8.9560    2.3000    0.0000 O   0  0  0  0  0  0  0  0  0  0  0  0
    8.3510    0.9270    0.0000 C   0  0  1  0  0  0  0  0  0  0  0  0
    6.9310    1.4100    0.0000 C   0  0  0  0  0  0  0  0  0  0  0  0
    6.6390    2.8810    0.0000 O   0  0  0  0  0  0  0  0  0  0  0  0
    8.0450   -0.5410    0.0000 C   0  0  1  0  0  0  0  0  0  0  0  0
    2.8490   -0.5630    0.0000 C   0  0  2  0  0  0  0  0  0  0  0  0
    2.8430    0.9370    0.0000 O   0  0  0  0  0  0  0  0  0  0  0  0
    1.5530   -1.3180    0.0000 C   0  0  1  0  0  0  0  0  0  0  0  0
    0.2510   -0.5730    0.0000 O   0  0  0  0  0  0  0  0  0  0  0  0
    1.5590   -2.8180    0.0000 C   0  0  2  0  0  0  0  0  0  0  0  0
    0.2630   -3.5730    0.0000 O   0  0  0  0  0  0  0  0  0  0  0  0
  1  2  1  0  0  0  0
  3  2  1  6  0  0  0
  3  4  1  0  0  0  0
  3 33  1  0  0  0  0
  4  5  1  0  0  0  0
  5  6  1  6  0  0  0
  5 29  1  0  0  0  0
  7  6  1  1  0  0  0
  7  8  1  0  0  0  0
 28  7  1  6  0  0  0
  8  9  1  0  0  0  0
  9 10  2  0  0  0  0
 11 10  1  6  0  0  0
 11 12  1  0  0  0  0
 11 28  1  0  0  0  0
 12 13  1  1  0  0  0
 12 23  1  0  0  0  0
 13 14  1  0  0  0  0
 14 15  2  0  0  0  0
 14 16  1  0  0  0  0
 16 17  1  0  0  0  0
 16 22  2  0  0  0  0
 17 18  2  0  0  0  0
 18 19  1  0  0  0  0
 19 20  1  0  0  0  0
 19 21  2  0  0  0  0
 21 22  1  0  0  0  0
 23 24  1  1  0  0  0
 23 25  1  0  0  0  0
 24 25  1  0  0  0  0
 25 26  1  6  0  0  0
 25 28  1  0  0  0  0
 26 27  1  0  0  0  0
 29 30  1  1  0  0  0
 29 31  1  0  0  0  0
 31 32  1  6  0  0  0
 31 33  1  0  0  0  0
 33 34  1  1  0  0  0
M  END
>  <Compound name >
CHEMBL2332354

$$$$
CHEMBL2443044
  MOE2019           2D

 33 36  0  0  0  0  0  0  0  0999 V2000
   21.5780   -1.4960    0.0000 C   0  0  0  0  0  0  0  0  0  0  0  0
   20.0820   -1.5990    0.0000 N   0  0  0  0  0  0  0  0  0  0  0  0
   19.4230   -2.9460    0.0000 C   0  0  0  0  0  0  0  0  0  0  0  0
   17.9260   -3.0490    0.0000 C   0  0  0  0  0  0  0  0  0  0  0  0
   17.0890   -1.8050    0.0000 C   0  0  0  0  0  0  0  0  0  0  0  0
   17.7480   -0.4570    0.0000 C   0  0  0  0  0  0  0  0  0  0  0  0
   19.2450   -0.3540    0.0000 C   0  0  0  0  0  0  0  0  0  0  0  0
   15.5930   -1.9080    0.0000 N   0  0  0  0  0  0  0  0  0  0  0  0
   14.7550   -0.6630    0.0000 C   0  0  0  0  0  0  0  0  0  0  0  0
   15.4140    0.6840    0.0000 O   0  0  0  0  0  0  0  0  0  0  0  0
   13.2590   -0.7660    0.0000 C   0  0  0  0  0  0  0  0  0  0  0  0
   12.2960    0.3840    0.0000 C   0  0  0  0  0  0  0  0  0  0  0  0
   10.9040   -0.1760    0.0000 C   0  0  0  0  0  0  0  0  0  0  0  0
   11.0070   -1.6730    0.0000 O   0  0  0  0  0  0  0  0  0  0  0  0
   12.4620   -2.0370    0.0000 N   0  0  0  0  0  0  0  0  0  0  0  0
    9.6330    0.6200    0.0000 C   0  0  0  0  0  0  0  0  0  0  0  0
    9.6870    2.1190    0.0000 C   0  0  0  0  0  0  0  0  0  0  0  0
   11.0130    2.8220    0.0000 O   0  0  0  0  0  0  0  0  0  0  0  0
    8.4160    2.9160    0.0000 C   0  0  0  0  0  0  0  0  0  0  0  0
    7.0910    2.2130    0.0000 C   0  0  0  0  0  0  0  0  0  0  0  0
    5.8200    3.0090    0.0000 O   0  0  0  0  0  0  0  0  0  0  0  0
    7.0370    0.7140    0.0000 C   0  0  0  0  0  0  0  0  0  0  0  0
    8.3080   -0.0820    0.0000 C   0  0  0  0  0  0  0  0  0  0  0  0
    8.2540   -1.5810    0.0000 O   0  0  0  0  0  0  0  0  0  0  0  0
    6.9290   -2.2840    0.0000 C   0  0  0  0  0  0  0  0  0  0  0  0
    6.8750   -3.7830    0.0000 C   0  0  0  0  0  0  0  0  0  0  0  0
    5.5490   -4.4860    0.0000 C   0  0  0  0  0  0  0  0  0  0  0  0
    4.2780   -3.6890    0.0000 C   0  0  0  0  0  0  0  0  0  0  0  0
    4.3320   -2.1900    0.0000 C   0  0  0  0  0  0  0  0  0  0  0  0
    5.6580   -1.4880    0.0000 C   0  0  0  0  0  0  0  0  0  0  0  0
    2.9530   -4.3920    0.0000 N   0  3  0  0  0  0  0  0  0  0  0  0
    1.6820   -3.5960    0.0000 O   0  0  0  0  0  0  0  0  0  0  0  0
    2.8990   -5.8910    0.0000 O   0  5  0  0  0  0  0  0  0  0  0  0
  1  2  1  0  0  0  0
  2  3  1  0  0  0  0
  2  7  1  0  0  0  0
  3  4  1  0  0  0  0
  4  5  1  0  0  0  0
  5  6  1  0  0  0  0
  5  8  1  0  0  0  0
  6  7  1  0  0  0  0
  8  9  1  0  0  0  0
  9 10  2  0  0  0  0
  9 11  1  0  0  0  0
 11 12  1  0  0  0  0
 11 15  2  0  0  0  0
 12 13  2  0  0  0  0
 13 14  1  0  0  0  0
 13 16  1  0  0  0  0
 14 15  1  0  0  0  0
 16 17  1  0  0  0  0
 16 23  2  0  0  0  0
 17 18  1  0  0  0  0
 17 19  2  0  0  0  0
 19 20  1  0  0  0  0
 20 21  1  0  0  0  0
 20 22  2  0  0  0  0
 22 23  1  0  0  0  0
 23 24  1  0  0  0  0
 24 25  1  0  0  0  0
 25 26  1  0  0  0  0
 25 30  2  0  0  0  0
 26 27  2  0  0  0  0
 27 28  1  0  0  0  0
 28 29  2  0  0  0  0
 28 31  1  0  0  0  0
 29 30  1  0  0  0  0
 31 32  2  0  0  0  0
 31 33  1  0  0  0  0
M  CHG  1  31   1
M  CHG  1  33  -1
M  END
>  <Compound name >
CHEMBL2443044

$$$$
CHEMBL252164
  MOE2019           2D

 34 37  0  0  0  0  0  0  0  0999 V2000
   10.8400    8.5710    0.0000 C   0  0  0  0  0  0  0  0  0  0  0  0
   10.4940    7.1120    0.0000 C   0  0  0  0  0  0  0  0  0  0  0  0
    9.0570    6.6820    0.0000 N   0  0  0  0  0  0  0  0  0  0  0  0
    8.7110    5.2220    0.0000 C   0  0  0  0  0  0  0  0  0  0  0  0
    9.8020    4.1930    0.0000 O   0  0  0  0  0  0  0  0  0  0  0  0
    7.2740    4.7920    0.0000 C   0  0  0  0  0  0  0  0  0  0  0  0
    6.0820    5.7010    0.0000 N   0  0  0  0  0  0  0  0  0  0  0  0
    4.8480    4.8480    0.0000 O   0  0  0  0  0  0  0  0  0  0  0  0
    5.2780    3.4110    0.0000 C   0  0  0  0  0  0  0  0  0  0  0  0
    4.3690    2.2190    0.0000 C   0  0  0  0  0  0  0  0  0  0  0  0
    4.9470    0.8340    0.0000 C   0  0  0  0  0  0  0  0  0  0  0  0
    4.0370   -0.3580    0.0000 C   0  0  0  0  0  0  0  0  0  0  0  0
    4.6150   -1.7420    0.0000 C   0  0  0  0  0  0  0  0  0  0  0  0
    3.7050   -2.9350    0.0000 C   0  0  0  0  0  0  0  0  0  0  0  0
    6.1030   -1.9340    0.0000 C   0  0  0  0  0  0  0  0  0  0  0  0
    2.5490   -0.1670    0.0000 C   0  0  0  0  0  0  0  0  0  0  0  0
    1.6400   -1.3600    0.0000 O   0  0  0  0  0  0  0  0  0  0  0  0
    1.9710    1.2170    0.0000 C   0  0  0  0  0  0  0  0  0  0  0  0
    2.8810    2.4100    0.0000 C   0  0  0  0  0  0  0  0  0  0  0  0
    2.3030    3.7940    0.0000 O   0  0  0  0  0  0  0  0  0  0  0  0
    6.7780    3.3760    0.0000 C   0  0  0  0  0  0  0  0  0  0  0  0
    7.6310    2.1430    0.0000 C   0  0  0  0  0  0  0  0  0  0  0  0
    9.1260    2.2650    0.0000 C   0  0  0  0  0  0  0  0  0  0  0  0
    9.9790    1.0310    0.0000 C   0  0  0  0  0  0  0  0  0  0  0  0
    9.3370   -0.3250    0.0000 C   0  0  0  0  0  0  0  0  0  0  0  0
   10.1910   -1.5580    0.0000 C   0  0  0  0  0  0  0  0  0  0  0  0
   11.6860   -1.4360    0.0000 N   0  0  0  0  0  0  0  0  0  0  0  0
   12.5390   -2.6700    0.0000 C   0  0  0  0  0  0  0  0  0  0  0  0
   14.0340   -2.5480    0.0000 C   0  0  0  0  0  0  0  0  0  0  0  0
   14.6760   -1.1920    0.0000 O   0  0  0  0  0  0  0  0  0  0  0  0
   13.8230    0.0420    0.0000 C   0  0  0  0  0  0  0  0  0  0  0  0
   12.3280   -0.0810    0.0000 C   0  0  0  0  0  0  0  0  0  0  0  0
    7.8420   -0.4470    0.0000 C   0  0  0  0  0  0  0  0  0  0  0  0
    6.9890    0.7870    0.0000 C   0  0  0  0  0  0  0  0  0  0  0  0
  1  2  1  0  0  0  0
  2  3  1  0  0  0  0
  3  4  1  0  0  0  0
  4  5  2  0  0  0  0
  4  6  1  0  0  0  0
  6  7  2  0  0  0  0
  6 21  1  0  0  0  0
  7  8  1  0  0  0  0
  8  9  1  0  0  0  0
  9 10  1  0  0  0  0
  9 21  2  0  0  0  0
 10 11  1  0  0  0  0
 10 19  2  0  0  0  0
 11 12  2  0  0  0  0
 12 13  1  0  0  0  0
 12 16  1  0  0  0  0
 13 14  1  0  0  0  0
 13 15  1  0  0  0  0
 16 17  1  0  0  0  0
 16 18  2  0  0  0  0
 18 19  1  0  0  0  0
 19 20  1  0  0  0  0
 21 22  1  0  0  0  0
 22 23  1  0  0  0  0
 22 34  2  0  0  0  0
 23 24  2  0  0  0  0
 24 25  1  0  0  0  0
 25 26  1  0  0  0  0
 25 33  2  0  0  0  0
 26 27  1  0  0  0  0
 27 28  1  0  0  0  0
 27 32  1  0  0  0  0
 28 29  1  0  0  0  0
 29 30  1  0  0  0  0
 30 31  1  0  0  0  0
 31 32  1  0  0  0  0
 33 34  1  0  0  0  0
M  END
>  <Compound name >
CHEMBL252164

$$$$
CHEMBL399530
  MOE2019           2D

 26 29  0  0  0  0  0  0  0  0999 V2000
    2.3660   -3.9300    0.0000 C   0  0  0  0  0  0  0  0  0  0  0  0
    3.2580   -2.7240    0.0000 C   0  0  0  0  0  0  0  0  0  0  0  0
    2.6600   -1.3490    0.0000 C   0  0  0  0  0  0  0  0  0  0  0  0
    3.5530   -0.1430    0.0000 C   0  0  0  0  0  0  0  0  0  0  0  0
    2.9550    1.2330    0.0000 C   0  0  0  0  0  0  0  0  0  0  0  0
    1.4650    1.4030    0.0000 C   0  0  0  0  0  0  0  0  0  0  0  0
    0.8670    2.7790    0.0000 O   0  0  0  0  0  0  0  0  0  0  0  0
    0.5720    0.1980    0.0000 C   0  0  0  0  0  0  0  0  0  0  0  0
    1.1700   -1.1780    0.0000 C   0  0  0  0  0  0  0  0  0  0  0  0
    0.2780   -2.3840    0.0000 O   0  0  0  0  0  0  0  0  0  0  0  0
    3.8480    2.4380    0.0000 C   0  0  0  0  0  0  0  0  0  0  0  0
    3.3970    3.8690    0.0000 N   0  0  0  0  0  0  0  0  0  0  0  0
    4.6190    4.7400    0.0000 N   0  0  0  0  0  0  0  0  0  0  0  0
    5.8240    3.8470    0.0000 C   0  0  0  0  0  0  0  0  0  0  0  0
    7.2550    4.2980    0.0000 C   0  0  0  0  0  0  0  0  0  0  0  0
    5.3480    2.4250    0.0000 C   0  0  0  0  0  0  0  0  0  0  0  0
    6.2190    1.2030    0.0000 C   0  0  0  0  0  0  0  0  0  0  0  0
    5.5960   -0.1620    0.0000 C   0  0  0  0  0  0  0  0  0  0  0  0
    6.4670   -1.3830    0.0000 C   0  0  0  0  0  0  0  0  0  0  0  0
    7.9600   -1.2400    0.0000 C   0  0  0  0  0  0  0  0  0  0  0  0
    8.8310   -2.4610    0.0000 O   0  0  0  0  0  0  0  0  0  0  0  0
   10.3240   -2.3180    0.0000 C   0  0  0  0  0  0  0  0  0  0  0  0
   10.9460   -0.9530    0.0000 C   0  0  0  0  0  0  0  0  0  0  0  0
   10.0760    0.2680    0.0000 O   0  0  0  0  0  0  0  0  0  0  0  0
    8.5820    0.1250    0.0000 C   0  0  0  0  0  0  0  0  0  0  0  0
    7.7120    1.3460    0.0000 C   0  0  0  0  0  0  0  0  0  0  0  0
  1  2  1  0  0  0  0
  2  3  1  0  0  0  0
  3  4  1  0  0  0  0
  3  9  2  0  0  0  0
  4  5  2  0  0  0  0
  5  6  1  0  0  0  0
  5 11  1  0  0  0  0
  6  7  1  0  0  0  0
  6  8  2  0  0  0  0
  8  9  1  0  0  0  0
  9 10  1  0  0  0  0
 11 12  1  0  0  0  0
 11 16  2  0  0  0  0
 12 13  1  0  0  0  0
 13 14  2  0  0  0  0
 14 15  1  0  0  0  0
 14 16  1  0  0  0  0
 16 17  1  0  0  0  0
 17 18  1  0  0  0  0
 17 26  2  0  0  0  0
 18 19  2  0  0  0  0
 19 20  1  0  0  0  0
 20 21  1  0  0  0  0
 20 25  2  0  0  0  0
 21 22  1  0  0  0  0
 22 23  1  0  0  0  0
 23 24  1  0  0  0  0
 24 25  1  0  0  0  0
 25 26  1  0  0  0  0
M  END
>  <Compound name >
CHEMBL399530

$$$$
CHEMBL414883
  MOE2019           2D

 25 27  0  0  1  0  0  0  0  0999 V2000
    2.8290    2.8120    0.0000 C   0  0  0  0  0  0  0  0  0  0  0  0
    2.8200    1.3120    0.0000 C   0  0  2  0  0  0  0  0  0  0  0  0
    1.4990    0.8150    0.0000 C   0  0  0  0  0  0  0  0  0  0  0  0
    0.8330   -0.4590    0.0000 C   0  0  1  0  0  0  0  0  0  0  0  0
   -0.0770   -1.6490    0.0000 O   0  0  0  0  0  0  0  0  0  0  0  0
    1.4170   -1.8110    0.0000 C   0  0  2  0  0  0  0  0  0  0  0  0
    0.5460   -3.0510    0.0000 C   0  0  0  0  0  0  0  0  0  0  0  0
    1.3030   -4.3890    0.0000 C   0  0  0  0  0  0  0  0  0  0  0  0
    2.7740   -4.2910    0.0000 C   0  0  0  0  0  0  0  0  0  0  0  0
    3.7560   -5.4220    0.0000 C   0  0  0  0  0  0  0  0  0  0  0  0
    5.2300   -4.8680    0.0000 C   0  0  0  0  0  0  0  0  0  0  0  0
    6.4650   -5.7200    0.0000 O   0  0  0  0  0  0  0  0  0  0  0  0
    5.2250   -3.3720    0.0000 C   0  0  0  0  0  0  0  0  0  0  0  0
    6.3940   -2.4740    0.0000 C   0  0  0  0  0  0  0  0  0  0  0  0
    7.7630   -3.0890    0.0000 C   0  0  0  0  0  0  0  0  0  0  0  0
    7.8220   -4.5880    0.0000 Cl  0  0  0  0  0  0  0  0  0  0  0  0
    9.0810   -2.3700    0.0000 C   0  0  0  0  0  0  0  0  0  0  0  0
   10.4370   -3.0110    0.0000 O   0  0  0  0  0  0  0  0  0  0  0  0
    8.8020   -0.8950    0.0000 C   0  0  0  0  0  0  0  0  0  0  0  0
    7.4230   -0.2980    0.0000 C   0  0  0  0  0  0  0  0  0  0  0  0
    7.3820    1.2010    0.0000 O   0  0  0  0  0  0  0  0  0  0  0  0
    6.0790   -0.9680    0.0000 C   0  0  0  0  0  0  0  0  0  0  0  0
    4.6020   -0.6190    0.0000 C   0  0  0  0  0  0  0  0  0  0  0  0
    3.5800   -1.7170    0.0000 O   0  0  0  0  0  0  0  0  0  0  0  0
    4.1600    0.7900    0.0000 O   0  0  0  0  0  0  0  0  0  0  0  0
  2  1  1  1  0  0  0
  2  3  1  0  0  0  0
  2 25  1  0  0  0  0
  3  4  1  0  0  0  0
  4  5  1  6  0  0  0
  4  6  1  0  0  0  0
  5  6  1  0  0  0  0
  6  7  1  1  0  0  0
  7  8  2  0  0  0  0
  8  9  1  0  0  0  0
  9 10  2  0  0  0  0
 10 11  1  0  0  0  0
 11 12  2  0  0  0  0
 11 13  1  0  0  0  0
 13 14  1  0  0  0  0
 14 15  2  0  0  0  0
 14 22  1  0  0  0  0
 15 16  1  0  0  0  0
 15 17  1  0  0  0  0
 17 18  1  0  0  0  0
 17 19  2  0  0  0  0
 19 20  1  0  0  0  0
 20 21  1  0  0  0  0
 20 22  2  0  0  0  0
 22 23  1  0  0  0  0
 23 24  2  0  0  0  0
 23 25  1  0  0  0  0
M  END
>  <Compound name >
CHEMBL414883

$$$$
CHEMBL491499
  MOE2019           2D

 23 24  0  0  1  0  0  0  0  0999 V2000
    2.2690    1.2450    0.0000 C   0  0  0  0  0  0  0  0  0  0  0  0
    1.4630   -0.0200    0.0000 C   0  0  1  0  0  0  0  0  0  0  0  0
    0.0070    0.1010    0.0000 C   0  0  0  0  0  0  0  0  0  0  0  0
   -1.0110   -0.8500    0.0000 C   0  0  0  0  0  0  0  0  0  0  0  0
   -1.2580   -2.1980    0.0000 C   0  0  0  0  0  0  0  0  0  0  0  0
   -0.3880   -3.3920    0.0000 C   0  0  0  0  0  0  0  0  0  0  0  0
    1.1030   -3.2270    0.0000 O   0  0  0  0  0  0  0  0  0  0  0  0
   -0.9870   -4.7720    0.0000 C   0  0  0  0  0  0  0  0  0  0  0  0
   -0.1910   -5.9950    0.0000 C   0  0  0  0  0  0  0  0  0  0  0  0
    1.2950   -6.0220    0.0000 C   0  0  0  0  0  0  0  0  0  0  0  0
    2.1040   -4.7840    0.0000 C   0  0  0  0  0  0  0  0  0  0  0  0
    3.6310   -4.8680    0.0000 C   0  0  0  0  0  0  0  0  0  0  0  0
    4.4970   -3.8180    0.0000 C   0  0  0  0  0  0  0  0  0  0  0  0
    5.7580   -4.6480    0.0000 C   0  0  0  0  0  0  0  0  0  0  0  0
    7.0970   -3.9260    0.0000 C   0  0  0  0  0  0  0  0  0  0  0  0
    8.3750   -4.7110    0.0000 O   0  0  0  0  0  0  0  0  0  0  0  0
    7.1350   -2.4260    0.0000 C   0  0  0  0  0  0  0  0  0  0  0  0
    5.8370   -1.6350    0.0000 C   0  0  0  0  0  0  0  0  0  0  0  0
    5.8500   -0.1350    0.0000 O   0  0  0  0  0  0  0  0  0  0  0  0
    4.5330   -2.3990    0.0000 C   0  0  0  0  0  0  0  0  0  0  0  0
    3.7260   -1.3050    0.0000 C   0  0  0  0  0  0  0  0  0  0  0  0
    4.4030    0.0330    0.0000 O   0  0  0  0  0  0  0  0  0  0  0  0
    2.1950   -1.3010    0.0000 O   0  0  0  0  0  0  0  0  0  0  0  0
  2  1  1  6  0  0  0
  2  3  1  0  0  0  0
  2 23  1  0  0  0  0
  3  4  1  0  0  0  0
  4  5  1  0  0  0  0
  5  6  1  0  0  0  0
  6  7  2  0  0  0  0
  6  8  1  0  0  0  0
  8  9  1  0  0  0  0
  9 10  1  0  0  0  0
 10 11  1  0  0  0  0
 11 12  1  0  0  0  0
 12 13  1  0  0  0  0
 13 14  1  0  0  0  0
 13 20  2  0  0  0  0
 14 15  2  0  0  0  0
 15 16  1  0  0  0  0
 15 17  1  0  0  0  0
 17 18  2  0  0  0  0
 18 19  1  0  0  0  0
 18 20  1  0  0  0  0
 20 21  1  0  0  0  0
 21 22  2  0  0  0  0
 21 23  1  0  0  0  0
M  END
>  <Compound name >
CHEMBL491499

$$$$
CHEMBL560895
  MOE2019           2D

 33 36  0  0  0  0  0  0  0  0999 V2000
   -0.8020    0.6230    0.0000 C   0  0  0  0  0  0  0  0  0  0  0  0
   -1.1730    2.0760    0.0000 C   0  0  0  0  0  0  0  0  0  0  0  0
   -2.2270    1.0090    0.0000 C   0  0  0  0  0  0  0  0  0  0  0  0
   -2.1920    3.1760    0.0000 C   0  0  0  0  0  0  0  0  0  0  0  0
   -1.7490    4.6090    0.0000 C   0  0  0  0  0  0  0  0  0  0  0  0
   -2.7690    5.7090    0.0000 O   0  0  0  0  0  0  0  0  0  0  0  0
   -0.2870    4.9420    0.0000 C   0  0  0  0  0  0  0  0  0  0  0  0
    0.7330    3.8420    0.0000 C   0  0  0  0  0  0  0  0  0  0  0  0
    0.2900    2.4090    0.0000 C   0  0  0  0  0  0  0  0  0  0  0  0
    2.0940    4.4720    0.0000 N   0  0  0  0  0  0  0  0  0  0  0  0
    1.9160    5.9610    0.0000 N   0  0  0  0  0  0  0  0  0  0  0  0
    0.4450    6.2520    0.0000 C   0  0  0  0  0  0  0  0  0  0  0  0
   -0.1850    7.6130    0.0000 C   0  0  0  0  0  0  0  0  0  0  0  0
   -1.5470    6.9840    0.0000 F   0  0  0  0  0  0  0  0  0  0  0  0
    1.1760    8.2430    0.0000 F   0  0  0  0  0  0  0  0  0  0  0  0
   -0.8150    8.9750    0.0000 F   0  0  0  0  0  0  0  0  0  0  0  0
    3.4040    3.7400    0.0000 C   0  0  0  0  0  0  0  0  0  0  0  0
    3.4260    2.2410    0.0000 C   0  0  0  0  0  0  0  0  0  0  0  0
    4.7350    1.5090    0.0000 C   0  0  0  0  0  0  0  0  0  0  0  0
    6.0230    2.2780    0.0000 C   0  0  0  0  0  0  0  0  0  0  0  0
    7.3330    1.5470    0.0000 C   0  0  0  0  0  0  0  0  0  0  0  0
    7.3550    0.0470    0.0000 O   0  0  0  0  0  0  0  0  0  0  0  0
    8.6210    2.3150    0.0000 N   0  0  0  0  0  0  0  0  0  0  0  0
    6.0020    3.7780    0.0000 C   0  0  0  0  0  0  0  0  0  0  0  0
    7.2900    4.5460    0.0000 N   0  0  0  0  0  0  0  0  0  0  0  0
    7.2680    6.0460    0.0000 C   0  0  0  0  0  0  0  0  0  0  0  0
    8.5570    6.8150    0.0000 C   0  0  0  0  0  0  0  0  0  0  0  0
    8.5350    8.3150    0.0000 C   0  0  0  0  0  0  0  0  0  0  0  0
    7.2250    9.0460    0.0000 C   0  0  0  0  0  0  0  0  0  0  0  0
    7.2040   10.5460    0.0000 O   0  0  0  0  0  0  0  0  0  0  0  0
    5.9370    8.2770    0.0000 C   0  0  0  0  0  0  0  0  0  0  0  0
    5.9590    6.7770    0.0000 C   0  0  0  0  0  0  0  0  0  0  0  0
    4.6920    4.5090    0.0000 C   0  0  0  0  0  0  0  0  0  0  0  0
  1  2  1  0  0  0  0
  2  3  1  0  0  0  0
  2  4  1  0  0  0  0
  2  9  1  0  0  0  0
  4  5  1  0  0  0  0
  5  6  2  0  0  0  0
  5  7  1  0  0  0  0
  7  8  2  0  0  0  0
  7 12  1  0  0  0  0
  8  9  1  0  0  0  0
  8 10  1  0  0  0  0
 10 11  1  0  0  0  0
 10 17  1  0  0  0  0
 11 12  2  0  0  0  0
 12 13  1  0  0  0  0
 13 14  1  0  0  0  0
 13 15  1  0  0  0  0
 13 16  1  0  0  0  0
 17 18  1  0  0  0  0
 17 33  2  0  0  0  0
 18 19  2  0  0  0  0
 19 20  1  0  0  0  0
 20 21  1  0  0  0  0
 20 24  2  0  0  0  0
 21 22  2  0  0  0  0
 21 23  1  0  0  0  0
 24 25  1  0  0  0  0
 24 33  1  0  0  0  0
 25 26  1  0  0  0  0
 26 27  1  0  0  0  0
 26 32  1  0  0  0  0
 27 28  1  0  0  0  0
 28 29  1  0  0  0  0
 29 30  1  0  0  0  0
 29 31  1  0  0  0  0
 31 32  1  0  0  0  0
M  END
>  <Compound name >
CHEMBL560895

$$$$
CHEMBL563327
  MOE2019           2D

 31 34  0  0  0  0  0  0  0  0999 V2000
    2.1910    3.8630    0.0000 C   0  0  0  0  0  0  0  0  0  0  0  0
    3.4900    3.1130    0.0000 C   0  0  0  0  0  0  0  0  0  0  0  0
    3.4900    1.6130    0.0000 N   0  0  0  0  0  0  0  0  0  0  0  0
    4.7890    0.8630    0.0000 C   0  0  0  0  0  0  0  0  0  0  0  0
    6.0880    1.6130    0.0000 O   0  0  0  0  0  0  0  0  0  0  0  0
    4.7890   -0.6370    0.0000 C   0  0  0  0  0  0  0  0  0  0  0  0
    6.0020   -1.5180    0.0000 C   0  0  0  0  0  0  0  0  0  0  0  0
    5.5390   -2.9450    0.0000 C   0  0  0  0  0  0  0  0  0  0  0  0
    6.2890   -4.2440    0.0000 C   0  0  0  0  0  0  0  0  0  0  0  0
    5.5390   -5.5430    0.0000 N   0  0  0  0  0  0  0  0  0  0  0  0
    4.0390   -5.5430    0.0000 C   0  0  0  0  0  0  0  0  0  0  0  0
    3.2890   -6.8420    0.0000 N   0  0  0  0  0  0  0  0  0  0  0  0
    3.2890   -4.2440    0.0000 N   0  0  0  0  0  0  0  0  0  0  0  0
    4.0390   -2.9450    0.0000 C   0  0  0  0  0  0  0  0  0  0  0  0
    3.5750   -1.5180    0.0000 S   0  0  0  0  0  0  0  0  0  0  0  0
    7.7890   -4.2440    0.0000 C   0  0  0  0  0  0  0  0  0  0  0  0
    8.5390   -2.9450    0.0000 C   0  0  0  0  0  0  0  0  0  0  0  0
   10.0390   -2.9450    0.0000 C   0  0  0  0  0  0  0  0  0  0  0  0
   10.7890   -1.6460    0.0000 O   0  0  0  0  0  0  0  0  0  0  0  0
   12.2890   -1.6460    0.0000 C   0  0  0  0  0  0  0  0  0  0  0  0
   13.0390   -0.3470    0.0000 C   0  0  0  0  0  0  0  0  0  0  0  0
   14.5390   -0.3470    0.0000 N   0  0  0  0  0  0  0  0  0  0  0  0
   15.4200   -1.5600    0.0000 C   0  0  0  0  0  0  0  0  0  0  0  0
   16.8470   -1.0970    0.0000 C   0  0  0  0  0  0  0  0  0  0  0  0
   16.8470    0.4030    0.0000 C   0  0  0  0  0  0  0  0  0  0  0  0
   15.4200    0.8670    0.0000 C   0  0  0  0  0  0  0  0  0  0  0  0
   10.7890   -4.2440    0.0000 C   0  0  0  0  0  0  0  0  0  0  0  0
   12.2890   -4.2440    0.0000 Cl  0  0  0  0  0  0  0  0  0  0  0  0
   10.0390   -5.5430    0.0000 C   0  0  0  0  0  0  0  0  0  0  0  0
    8.5390   -5.5430    0.0000 C   0  0  0  0  0  0  0  0  0  0  0  0
    7.7890   -6.8420    0.0000 Cl  0  0  0  0  0  0  0  0  0  0  0  0
  1  2  1  0  0  0  0
  2  3  1  0  0  0  0
  3  4  1  0  0  0  0
  4  5  2  0  0  0  0
  4  6  1  0  0  0  0
  6  7  2  0  0  0  0
  6 15  1  0  0  0  0
  7  8  1  0  0  0  0
  8  9  1  0  0  0  0
  8 14  2  0  0  0  0
  9 10  2  0  0  0  0
  9 16  1  0  0  0  0
 10 11  1  0  0  0  0
 11 12  1  0  0  0  0
 11 13  2  0  0  0  0
 13 14  1  0  0  0  0
 14 15  1  0  0  0  0
 16 17  1  0  0  0  0
 16 30  2  0  0  0  0
 17 18  2  0  0  0  0
 18 19  1  0  0  0  0
 18 27  1  0  0  0  0
 19 20  1  0  0  0  0
 20 21  1  0  0  0  0
 21 22  1  0  0  0  0
 22 23  1  0  0  0  0
 22 26  1  0  0  0  0
 23 24  1  0  0  0  0
 24 25  1  0  0  0  0
 25 26  1  0  0  0  0
 27 28  1  0  0  0  0
 27 29  2  0  0  0  0
 29 30  1  0  0  0  0
 30 31  1  0  0  0  0
M  END
>  <Compound name >
CHEMBL563327

$$$$
CHEMBL14830
  MOE2019           2D

 27 29  0  0  1  0  0  0  0  0999 V2000
   -0.3830   -3.9880    0.0000 N   0  0  0  0  0  0  0  0  0  0  0  0
    1.0900   -4.2730    0.0000 C   0  0  0  0  0  0  0  0  0  0  0  0
    1.5790   -5.6910    0.0000 N   0  0  0  0  0  0  0  0  0  0  0  0
    3.0520   -5.9770    0.0000 C   0  0  0  0  0  0  0  0  0  0  0  0
    4.0350   -4.8440    0.0000 N   0  0  0  0  0  0  0  0  0  0  0  0
    3.5460   -3.4260    0.0000 C   0  0  0  0  0  0  0  0  0  0  0  0
    2.0730   -3.1410    0.0000 C   0  0  0  0  0  0  0  0  0  0  0  0
    1.8900   -1.6520    0.0000 N   0  0  0  0  0  0  0  0  0  0  0  0
    3.2490   -1.0170    0.0000 C   0  0  0  0  0  0  0  0  0  0  0  0
    4.2720   -2.1130    0.0000 N   0  0  0  0  0  0  0  0  0  0  0  0
    5.7610   -1.9300    0.0000 C   0  0  2  0  0  0  0  0  0  0  0  0
    6.7850   -3.0260    0.0000 O   0  0  0  0  0  0  0  0  0  0  0  0
    8.1440   -2.3910    0.0000 C   0  0  2  0  0  0  0  0  0  0  0  0
    9.4560   -3.1180    0.0000 C   0  0  0  0  0  0  0  0  0  0  0  0
   10.7410   -2.3440    0.0000 O   0  0  0  0  0  0  0  0  0  0  0  0
   12.0540   -3.0710    0.0000 P   0  0  3  0  0  0  0  0  0  0  0  0
   12.7800   -1.7580    0.0000 O   0  0  0  0  0  0  0  0  0  0  0  0
   11.3270   -4.3830    0.0000 O   0  0  0  0  0  0  0  0  0  0  0  0
   13.3660   -3.7970    0.0000 O   0  0  0  0  0  0  0  0  0  0  0  0
   14.6510   -3.0240    0.0000 P   0  0  0  0  0  0  0  0  0  0  0  0
   13.8780   -1.7380    0.0000 O   0  0  0  0  0  0  0  0  0  0  0  0
   15.4250   -4.3090    0.0000 O   0  0  0  0  0  0  0  0  0  0  0  0
   15.9370   -2.2500    0.0000 O   0  0  0  0  0  0  0  0  0  0  0  0
    7.9600   -0.9030    0.0000 C   0  0  1  0  0  0  0  0  0  0  0  0
    9.0560    0.1210    0.0000 O   0  0  0  0  0  0  0  0  0  0  0  0
    6.4870   -0.6170    0.0000 C   0  0  1  0  0  0  0  0  0  0  0  0
    5.8530    0.7420    0.0000 O   0  0  0  0  0  0  0  0  0  0  0  0
  1  2  1  0  0  0  0
  2  3  2  0  0  0  0
  2  7  1  0  0  0  0
  3  4  1  0  0  0  0
  4  5  2  0  0  0  0
  5  6  1  0  0  0  0
  6  7  2  0  0  0  0
  6 10  1  0  0  0  0
  7  8  1  0  0  0  0
  8  9  2  0  0  0  0
  9 10  1  0  0  0  0
 11 10  1  1  0  0  0
 11 12  1  0  0  0  0
 11 26  1  0  0  0  0
 12 13  1  0  0  0  0
 13 14  1  1  0  0  0
 13 24  1  0  0  0  0
 14 15  1  0  0  0  0
 15 16  1  0  0  0  0
 16 17  2  0  0  0  0
 16 18  1  0  0  0  0
 16 19  1  0  0  0  0
 19 20  1  0  0  0  0
 20 21  2  0  0  0  0
 20 22  1  0  0  0  0
 20 23  1  0  0  0  0
 24 25  1  6  0  0  0
 24 26  1  0  0  0  0
 26 27  1  6  0  0  0
M  END
>  <Compound name >
CHEMBL14830

$$$$
CHEMBL3104261
  MOE2019           2D

 17 19  0  0  1  0  0  0  0  0999 V2000
   10.8190   -2.0840    0.0000 N   0  0  0  0  0  0  0  0  0  0  0  0
   10.0690   -3.3830    0.0000 C   0  0  2  0  0  0  0  0  0  0  0  0
   10.0690   -4.8830    0.0000 C   0  0  0  0  0  0  0  0  0  0  0  0
    8.7700   -4.1330    0.0000 C   0  0  1  0  0  0  0  0  0  0  0  0
    7.2700   -4.1330    0.0000 C   0  0  0  0  0  0  0  0  0  0  0  0
    6.5200   -2.8340    0.0000 C   0  0  0  0  0  0  0  0  0  0  0  0
    5.0200   -2.8340    0.0000 C   0  0  0  0  0  0  0  0  0  0  0  0
    4.2700   -4.1330    0.0000 C   0  0  0  0  0  0  0  0  0  0  0  0
    5.0200   -5.4320    0.0000 C   0  0  0  0  0  0  0  0  0  0  0  0
    6.5200   -5.4320    0.0000 C   0  0  0  0  0  0  0  0  0  0  0  0
    2.7700   -4.1330    0.0000 C   0  0  0  0  0  0  0  0  0  0  0  0
    2.0200   -2.8340    0.0000 C   0  0  0  0  0  0  0  0  0  0  0  0
    0.5200   -2.8340    0.0000 C   0  0  0  0  0  0  0  0  0  0  0  0
   -0.2300   -4.1330    0.0000 C   0  0  0  0  0  0  0  0  0  0  0  0
    0.5200   -5.4320    0.0000 C   0  0  0  0  0  0  0  0  0  0  0  0
   -0.2300   -6.7310    0.0000 O   0  0  0  0  0  0  0  0  0  0  0  0
    2.0200   -5.4320    0.0000 C   0  0  0  0  0  0  0  0  0  0  0  0
  2  1  1  6  0  0  0
  2  3  1  0  0  0  0
  2  4  1  0  0  0  0
  3  4  1  0  0  0  0
  4  5  1  1  0  0  0
  5  6  1  0  0  0  0
  5 10  2  0  0  0  0
  6  7  2  0  0  0  0
  7  8  1  0  0  0  0
  8  9  2  0  0  0  0
  8 11  1  0  0  0  0
  9 10  1  0  0  0  0
 11 12  1  0  0  0  0
 11 17  2  0  0  0  0
 12 13  2  0  0  0  0
 13 14  1  0  0  0  0
 14 15  2  0  0  0  0
 15 16  1  0  0  0  0
 15 17  1  0  0  0  0
M  END
>  <Compound name >
CHEMBL3104261

$$$$
CHEMBL3651585
  MOE2019           2D

 28 31  0  0  1  0  0  0  0  0999 V2000
    0.2690   -1.0050    0.0000 C   0  0  0  0  0  0  0  0  0  0  0  0
    1.5680   -0.2550    0.0000 N   0  0  0  0  0  0  0  0  0  0  0  0
    2.8670   -1.0050    0.0000 C   0  0  0  0  0  0  0  0  0  0  0  0
    4.1660   -0.2550    0.0000 C   0  0  0  0  0  0  0  0  0  0  0  0
    4.1660    1.2450    0.0000 N   0  0  0  0  0  0  0  0  0  0  0  0
    2.8670    1.9950    0.0000 C   0  0  0  0  0  0  0  0  0  0  0  0
    1.5680    1.2450    0.0000 C   0  0  0  0  0  0  0  0  0  0  0  0
    5.4650    1.9950    0.0000 C   0  0  0  0  0  0  0  0  0  0  0  0
    5.4650    3.4950    0.0000 O   0  0  0  0  0  0  0  0  0  0  0  0
    6.7640    1.2450    0.0000 C   0  0  0  0  0  0  0  0  0  0  0  0
    8.0640    1.9950    0.0000 N   0  0  0  0  0  0  0  0  0  0  0  0
    9.3630    1.2450    0.0000 C   0  0  1  0  0  0  0  0  0  0  0  0
   10.1130   -0.0540    0.0000 C   0  0  0  0  0  0  0  0  0  0  0  0
   10.8630    1.2450    0.0000 C   0  0  2  0  0  0  0  0  0  0  0  0
   12.1620    1.9950    0.0000 C   0  0  0  0  0  0  0  0  0  0  0  0
   12.1620    3.4950    0.0000 C   0  0  0  0  0  0  0  0  0  0  0  0
   13.4610    4.2450    0.0000 C   0  0  0  0  0  0  0  0  0  0  0  0
   14.7600    3.4950    0.0000 C   0  0  0  0  0  0  0  0  0  0  0  0
   16.0590    4.2450    0.0000 O   0  0  0  0  0  0  0  0  0  0  0  0
   17.3580    3.4950    0.0000 C   0  0  0  0  0  0  0  0  0  0  0  0
   18.6570    4.2450    0.0000 C   0  0  0  0  0  0  0  0  0  0  0  0
   19.9560    3.4950    0.0000 C   0  0  0  0  0  0  0  0  0  0  0  0
   21.2550    4.2450    0.0000 C   0  0  0  0  0  0  0  0  0  0  0  0
   21.2550    5.7450    0.0000 C   0  0  0  0  0  0  0  0  0  0  0  0
   19.9560    6.4950    0.0000 C   0  0  0  0  0  0  0  0  0  0  0  0
   18.6570    5.7450    0.0000 C   0  0  0  0  0  0  0  0  0  0  0  0
   14.7600    1.9950    0.0000 C   0  0  0  0  0  0  0  0  0  0  0  0
   13.4610    1.2450    0.0000 C   0  0  0  0  0  0  0  0  0  0  0  0
  1  2  1  0  0  0  0
  2  3  1  0  0  0  0
  2  7  1  0  0  0  0
  3  4  1  0  0  0  0
  4  5  1  0  0  0  0
  5  6  1  0  0  0  0
  5  8  1  0  0  0  0
  6  7  1  0  0  0  0
  8  9  2  0  0  0  0
  8 10  1  0  0  0  0
 10 11  1  0  0  0  0
 12 11  1  6  0  0  0
 12 13  1  0  0  0  0
 12 14  1  0  0  0  0
 13 14  1  0  0  0  0
 14 15  1  1  0  0  0
 15 16  1  0  0  0  0
 15 28  2  0  0  0  0
 16 17  2  0  0  0  0
 17 18  1  0  0  0  0
 18 19  1  0  0  0  0
 18 27  2  0  0  0  0
 19 20  1  0  0  0  0
 20 21  1  0  0  0  0
 21 22  1  0  0  0  0
 21 26  2  0  0  0  0
 22 23  2  0  0  0  0
 23 24  1  0  0  0  0
 24 25  2  0  0  0  0
 25 26  1  0  0  0  0
 27 28  1  0  0  0  0
M  END
>  <Compound name >
CHEMBL3651585

$$$$
CHEMBL3786182
  MOE2019           2D

 27 30  0  0  1  0  0  0  0  0999 V2000
   -1.4820   -5.5310    0.0000 O   0  0  0  0  0  0  0  0  0  0  0  0
   -0.1830   -6.2810    0.0000 C   0  0  0  0  0  0  0  0  0  0  0  0
   -0.1830   -7.7810    0.0000 O   0  0  0  0  0  0  0  0  0  0  0  0
    1.1160   -5.5310    0.0000 C   0  0  0  0  0  0  0  0  0  0  0  0
    2.4150   -6.2810    0.0000 C   0  0  0  0  0  0  0  0  0  0  0  0
    3.7140   -5.5310    0.0000 C   0  0  0  0  0  0  0  0  0  0  0  0
    3.7140   -4.0310    0.0000 C   0  0  0  0  0  0  0  0  0  0  0  0
    5.0130   -3.2810    0.0000 C   0  0  0  0  0  0  0  0  0  0  0  0
    6.3120   -4.0310    0.0000 N   0  0  0  0  0  0  0  0  0  0  0  0
    6.3120   -5.5310    0.0000 C   0  0  0  0  0  0  0  0  0  0  0  0
    7.6110   -6.2810    0.0000 C   0  0  0  0  0  0  0  0  0  0  0  0
    8.9100   -5.5310    0.0000 C   0  0  0  0  0  0  0  0  0  0  0  0
   10.2090   -6.2810    0.0000 C   0  0  0  0  0  0  0  0  0  0  0  0
   11.5080   -5.5310    0.0000 N   0  0  0  0  0  0  0  0  0  0  0  0
   12.8070   -6.2810    0.0000 C   0  0  2  0  0  0  0  0  0  0  0  0
   13.5570   -7.5810    0.0000 C   0  0  0  0  0  0  0  0  0  0  0  0
   14.3070   -6.2810    0.0000 C   0  0  1  0  0  0  0  0  0  0  0  0
   15.6060   -5.5310    0.0000 C   0  0  0  0  0  0  0  0  0  0  0  0
   16.9050   -6.2810    0.0000 C   0  0  0  0  0  0  0  0  0  0  0  0
   18.2040   -5.5310    0.0000 C   0  0  0  0  0  0  0  0  0  0  0  0
   18.2040   -4.0310    0.0000 C   0  0  0  0  0  0  0  0  0  0  0  0
   16.9050   -3.2810    0.0000 C   0  0  0  0  0  0  0  0  0  0  0  0
   15.6060   -4.0310    0.0000 C   0  0  0  0  0  0  0  0  0  0  0  0
    8.9100   -4.0310    0.0000 C   0  0  0  0  0  0  0  0  0  0  0  0
    7.6110   -3.2810    0.0000 C   0  0  0  0  0  0  0  0  0  0  0  0
    2.4150   -3.2810    0.0000 C   0  0  0  0  0  0  0  0  0  0  0  0
    1.1160   -4.0310    0.0000 C   0  0  0  0  0  0  0  0  0  0  0  0
  1  2  1  0  0  0  0
  2  3  2  0  0  0  0
  2  4  1  0  0  0  0
  4  5  1  0  0  0  0
  4 27  2  0  0  0  0
  5  6  2  0  0  0  0
  6  7  1  0  0  0  0
  7  8  1  0  0  0  0
  7 26  2  0  0  0  0
  8  9  1  0  0  0  0
  9 10  1  0  0  0  0
  9 25  1  0  0  0  0
 10 11  1  0  0  0  0
 11 12  1  0  0  0  0
 12 13  1  0  0  0  0
 12 24  1  0  0  0  0
 13 14  1  0  0  0  0
 15 14  1  1  0  0  0
 15 16  1  0  0  0  0
 15 17  1  0  0  0  0
 16 17  1  0  0  0  0
 17 18  1  6  0  0  0
 18 19  1  0  0  0  0
 18 23  2  0  0  0  0
 19 20  2  0  0  0  0
 20 21  1  0  0  0  0
 21 22  2  0  0  0  0
 22 23  1  0  0  0  0
 24 25  1  0  0  0  0
 26 27  1  0  0  0  0
M  END
>  <Compound name >
CHEMBL3786182

$$$$
CHEMBL3121308
  MOE2019           2D

 42 46  0  0  0  0  0  0  0  0999 V2000
   -0.7270   10.2240    0.0000 C   0  0  0  0  0  0  0  0  0  0  0  0
   -0.7270    8.7240    0.0000 O   0  0  0  0  0  0  0  0  0  0  0  0
    0.5720    7.9740    0.0000 C   0  0  0  0  0  0  0  0  0  0  0  0
    1.8710    8.7240    0.0000 N   0  0  0  0  0  0  0  0  0  0  0  0
    3.1700    7.9740    0.0000 C   0  0  0  0  0  0  0  0  0  0  0  0
    3.1700    6.4740    0.0000 C   0  0  0  0  0  0  0  0  0  0  0  0
    1.8710    5.7240    0.0000 C   0  0  0  0  0  0  0  0  0  0  0  0
    0.5720    6.4740    0.0000 C   0  0  0  0  0  0  0  0  0  0  0  0
   -0.7270    5.7240    0.0000 S   0  0  0  0  0  0  0  0  0  0  0  0
    0.0230    4.4250    0.0000 O   0  0  0  0  0  0  0  0  0  0  0  0
   -1.4770    7.0240    0.0000 O   0  0  0  0  0  0  0  0  0  0  0  0
   -2.0260    4.9740    0.0000 N   0  0  0  0  0  0  0  0  0  0  0  0
   -2.0260    3.4740    0.0000 C   0  0  0  0  0  0  0  0  0  0  0  0
   -0.7270    2.7240    0.0000 C   0  0  0  0  0  0  0  0  0  0  0  0
   -0.7270    1.2240    0.0000 C   0  0  0  0  0  0  0  0  0  0  0  0
   -2.0260    0.4740    0.0000 C   0  0  0  0  0  0  0  0  0  0  0  0
   -2.0260   -1.0260    0.0000 F   0  0  0  0  0  0  0  0  0  0  0  0
   -3.3250    1.2240    0.0000 C   0  0  0  0  0  0  0  0  0  0  0  0
   -3.3250    2.7240    0.0000 C   0  0  0  0  0  0  0  0  0  0  0  0
   -4.6240    3.4740    0.0000 F   0  0  0  0  0  0  0  0  0  0  0  0
    4.4690    5.7240    0.0000 C   0  0  0  0  0  0  0  0  0  0  0  0
    4.4690    4.2240    0.0000 C   0  0  0  0  0  0  0  0  0  0  0  0
    5.7680    3.4740    0.0000 C   0  0  0  0  0  0  0  0  0  0  0  0
    7.0670    4.2240    0.0000 C   0  0  0  0  0  0  0  0  0  0  0  0
    8.3660    3.4740    0.0000 N   0  0  0  0  0  0  0  0  0  0  0  0
    9.6650    4.2240    0.0000 C   0  0  0  0  0  0  0  0  0  0  0  0
   10.8140    3.2600    0.0000 N   0  0  0  0  0  0  0  0  0  0  0  0
    9.6650    5.7240    0.0000 N   0  0  0  0  0  0  0  0  0  0  0  0
    8.3660    6.4740    0.0000 C   0  0  0  0  0  0  0  0  0  0  0  0
    8.3660    7.9740    0.0000 O   0  0  0  0  0  0  0  0  0  0  0  0
    7.0670    5.7240    0.0000 C   0  0  0  0  0  0  0  0  0  0  0  0
    5.7680    6.4740    0.0000 C   0  0  0  0  0  0  0  0  0  0  0  0
   11.1420    5.9850    0.0000 C   0  0  0  0  0  0  0  0  0  0  0  0
   11.6550    4.5750    0.0000 C   0  0  0  0  0  0  0  0  0  0  0  0
   13.1320    4.3150    0.0000 C   0  0  0  0  0  0  0  0  0  0  0  0
   14.0970    5.4640    0.0000 C   0  0  0  0  0  0  0  0  0  0  0  0
   13.5840    6.8740    0.0000 C   0  0  0  0  0  0  0  0  0  0  0  0
   12.1060    7.1340    0.0000 C   0  0  0  0  0  0  0  0  0  0  0  0
   11.8460    8.6110    0.0000 C   0  0  0  0  0  0  0  0  0  0  0  0
   11.5850   10.0880    0.0000 F   0  0  0  0  0  0  0  0  0  0  0  0
   10.3690    8.3510    0.0000 F   0  0  0  0  0  0  0  0  0  0  0  0
   13.3230    8.8720    0.0000 F   0  0  0  0  0  0  0  0  0  0  0  0
  1  2  1  0  0  0  0
  2  3  1  0  0  0  0
  3  4  1  0  0  0  0
  3  8  2  0  0  0  0
  4  5  2  0  0  0  0
  5  6  1  0  0  0  0
  6  7  2  0  0  0  0
  6 21  1  0  0  0  0
  7  8  1  0  0  0  0
  8  9  1  0  0  0  0
  9 10  2  0  0  0  0
  9 11  2  0  0  0  0
  9 12  1  0  0  0  0
 12 13  1  0  0  0  0
 13 14  1  0  0  0  0
 13 19  2  0  0  0  0
 14 15  2  0  0  0  0
 15 16  1  0  0  0  0
 16 17  1  0  0  0  0
 16 18  2  0  0  0  0
 18 19  1  0  0  0  0
 19 20  1  0  0  0  0
 21 22  1  0  0  0  0
 21 32  2  0  0  0  0
 22 23  2  0  0  0  0
 23 24  1  0  0  0  0
 24 25  1  0  0  0  0
 24 31  2  0  0  0  0
 25 26  2  0  0  0  0
 26 27  1  0  0  0  0
 26 28  1  0  0  0  0
 28 29  1  0  0  0  0
 28 33  1  0  0  0  0
 29 30  2  0  0  0  0
 29 31  1  0  0  0  0
 31 32  1  0  0  0  0
 33 34  1  0  0  0  0
 33 38  2  0  0  0  0
 34 35  2  0  0  0  0
 35 36  1  0  0  0  0
 36 37  2  0  0  0  0
 37 38  1  0  0  0  0
 38 39  1  0  0  0  0
 39 40  1  0  0  0  0
 39 41  1  0  0  0  0
 39 42  1  0  0  0  0
M  END
>  <Compound name >
CHEMBL3121308

$$$$
CHEMBL7463
  MOE2019           2D

 31 35  0  0  0  0  0  0  0  0999 V2000
    9.6170    7.3800    0.0000 C   0  0  0  0  0  0  0  0  0  0  0  0
    9.2290    5.9310    0.0000 N   0  0  0  0  0  0  0  0  0  0  0  0
   10.2900    4.8700    0.0000 C   0  0  0  0  0  0  0  0  0  0  0  0
    7.7800    5.5430    0.0000 C   0  0  0  0  0  0  0  0  0  0  0  0
    6.7200    6.6030    0.0000 C   0  0  0  0  0  0  0  0  0  0  0  0
    5.2710    6.2150    0.0000 C   0  0  0  0  0  0  0  0  0  0  0  0
    4.2100    7.2760    0.0000 N   0  0  0  0  0  0  0  0  0  0  0  0
    2.7290    7.0410    0.0000 C   0  0  0  0  0  0  0  0  0  0  0  0
    2.0480    8.3770    0.0000 C   0  0  0  0  0  0  0  0  0  0  0  0
    0.5660    8.6120    0.0000 C   0  0  0  0  0  0  0  0  0  0  0  0
   -0.4950    7.5510    0.0000 C   0  0  0  0  0  0  0  0  0  0  0  0
   -1.8310    8.2320    0.0000 C   0  0  0  0  0  0  0  0  0  0  0  0
   -3.1680    7.5510    0.0000 O   0  0  0  0  0  0  0  0  0  0  0  0
   -1.5970    9.7140    0.0000 N   0  0  0  0  0  0  0  0  0  0  0  0
   -0.1150    9.9490    0.0000 C   0  0  0  0  0  0  0  0  0  0  0  0
    0.5660   11.2850    0.0000 O   0  0  0  0  0  0  0  0  0  0  0  0
   -0.2600    6.0700    0.0000 C   0  0  0  0  0  0  0  0  0  0  0  0
    1.0760    5.3890    0.0000 C   0  0  0  0  0  0  0  0  0  0  0  0
    0.8420    3.9070    0.0000 N   0  0  0  0  0  0  0  0  0  0  0  0
   -0.6400    3.6730    0.0000 C   0  0  0  0  0  0  0  0  0  0  0  0
   -1.4570    2.4150    0.0000 C   0  0  0  0  0  0  0  0  0  0  0  0
   -2.9550    2.4930    0.0000 C   0  0  0  0  0  0  0  0  0  0  0  0
   -3.6360    3.8300    0.0000 C   0  0  0  0  0  0  0  0  0  0  0  0
   -2.8190    5.0880    0.0000 C   0  0  0  0  0  0  0  0  0  0  0  0
   -1.3210    5.0090    0.0000 C   0  0  0  0  0  0  0  0  0  0  0  0
    3.1080    9.4380    0.0000 C   0  0  0  0  0  0  0  0  0  0  0  0
    3.0300   10.9360    0.0000 C   0  0  0  0  0  0  0  0  0  0  0  0
    4.2880   11.7530    0.0000 C   0  0  0  0  0  0  0  0  0  0  0  0
    5.6240   11.0720    0.0000 C   0  0  0  0  0  0  0  0  0  0  0  0
    5.7030    9.5740    0.0000 C   0  0  0  0  0  0  0  0  0  0  0  0
    4.4450    8.7570    0.0000 C   0  0  0  0  0  0  0  0  0  0  0  0
  1  2  1  0  0  0  0
  2  3  1  0  0  0  0
  2  4  1  0  0  0  0
  4  5  1  0  0  0  0
  5  6  1  0  0  0  0
  6  7  1  0  0  0  0
  7  8  1  0  0  0  0
  7 31  1  0  0  0  0
  8  9  2  0  0  0  0
  9 10  1  0  0  0  0
  9 26  1  0  0  0  0
 10 11  2  0  0  0  0
 10 15  1  0  0  0  0
 11 12  1  0  0  0  0
 11 17  1  0  0  0  0
 12 13  2  0  0  0  0
 12 14  1  0  0  0  0
 14 15  1  0  0  0  0
 15 16  2  0  0  0  0
 17 18  2  0  0  0  0
 17 25  1  0  0  0  0
 18 19  1  0  0  0  0
 19 20  1  0  0  0  0
 20 21  1  0  0  0  0
 20 25  2  0  0  0  0
 21 22  2  0  0  0  0
 22 23  1  0  0  0  0
 23 24  2  0  0  0  0
 24 25  1  0  0  0  0
 26 27  1  0  0  0  0
 26 31  2  0  0  0  0
 27 28  2  0  0  0  0
 28 29  1  0  0  0  0
 29 30  2  0  0  0  0
 30 31  1  0  0  0  0
M  END
>  <Compound name >
CHEMBL7463

$$$$
CHEMBL207990
  MOE2019           2D

 39 39  0  0  1  0  0  0  0  0999 V2000
    6.1170    0.5610    0.0000 C   0  0  0  0  0  0  0  0  0  0  0  0
    6.1280   -0.9390    0.0000 C   0  0  0  0  0  0  0  0  0  0  0  0
    4.8340   -1.6980    0.0000 C   0  0  2  0  0  0  0  0  0  0  0  0
    3.5300   -0.9580    0.0000 C   0  0  0  0  0  0  0  0  0  0  0  0
    4.8450   -3.1980    0.0000 C   0  0  2  0  0  0  0  0  0  0  0  0
    6.1490   -3.9390    0.0000 N   0  0  0  0  0  0  0  0  0  0  0  0
    7.4430   -3.1800    0.0000 C   0  0  0  0  0  0  0  0  0  0  0  0
    7.4320   -1.6800    0.0000 O   0  0  0  0  0  0  0  0  0  0  0  0
    8.7470   -3.9210    0.0000 C   0  0  2  0  0  0  0  0  0  0  0  0
    8.7580   -5.4210    0.0000 C   0  0  1  0  0  0  0  0  0  0  0  0
    7.4640   -6.1800    0.0000 C   0  0  0  0  0  0  0  0  0  0  0  0
   10.0620   -6.1610    0.0000 C   0  0  0  0  0  0  0  0  0  0  0  0
   10.0730   -7.6610    0.0000 C   0  0  0  0  0  0  0  0  0  0  0  0
   10.0410   -3.1610    0.0000 N   0  0  0  0  0  0  0  0  0  0  0  0
   10.0300   -1.6610    0.0000 C   0  0  0  0  0  0  0  0  0  0  0  0
   11.3450   -3.9020    0.0000 C   0  0  0  0  0  0  0  0  0  0  0  0
   12.6390   -3.1430    0.0000 O   0  0  0  0  0  0  0  0  0  0  0  0
   11.3560   -5.4020    0.0000 C   0  0  0  0  0  0  0  0  0  0  0  0
    3.5510   -3.9580    0.0000 C   0  0  0  0  0  0  0  0  0  0  0  0
    3.5620   -5.4580    0.0000 O   0  0  0  0  0  0  0  0  0  0  0  0
    2.2470   -3.2170    0.0000 N   0  0  0  0  0  0  0  0  0  0  0  0
    0.9530   -3.9760    0.0000 C   0  0  1  0  0  0  0  0  0  0  0  0
    0.9640   -5.4760    0.0000 C   0  0  1  0  0  0  0  0  0  0  0  0
   -0.3300   -6.2350    0.0000 C   0  0  0  0  0  0  0  0  0  0  0  0
    2.2680   -6.2170    0.0000 O   0  0  0  0  0  0  0  0  0  0  0  0
   -0.3510   -3.2350    0.0000 C   0  0  0  0  0  0  0  0  0  0  0  0
   -1.6450   -3.9950    0.0000 O   0  0  0  0  0  0  0  0  0  0  0  0
   -0.3620   -1.7350    0.0000 N   0  0  0  0  0  0  0  0  0  0  0  0
   -1.6660   -0.9950    0.0000 C   0  0  1  0  0  0  0  0  0  0  0  0
   -1.6770    0.5050    0.0000 C   0  0  0  0  0  0  0  0  0  0  0  0
   -0.3830    1.2640    0.0000 C   0  0  0  0  0  0  0  0  0  0  0  0
    0.9210    0.5240    0.0000 C   0  0  0  0  0  0  0  0  0  0  0  0
   -0.3940    2.7640    0.0000 C   0  0  0  0  0  0  0  0  0  0  0  0
   -2.9600   -1.7540    0.0000 C   0  0  0  0  0  0  0  0  0  0  0  0
   -2.9490   -3.2540    0.0000 O   0  0  0  0  0  0  0  0  0  0  0  0
   -4.2640   -1.0130    0.0000 C   0  0  1  0  0  0  0  0  0  0  0  0
   -4.6420   -2.4650    0.0000 C   0  0  0  0  0  0  0  0  0  0  0  0
   -4.0790    0.4750    0.0000 C   0  0  0  0  0  0  0  0  0  0  0  0
   -5.4610   -0.1090    0.0000 O   0  0  0  0  0  0  0  0  0  0  0  0
  1  2  1  0  0  0  0
  2  3  1  0  0  0  0
  3  4  1  1  0  0  0
  3  5  1  0  0  0  0
  5  6  1  0  0  0  0
  5 19  1  6  0  0  0
  6  7  1  0  0  0  0
  7  8  2  0  0  0  0
  9  7  1  1  0  0  0
  9 10  1  0  0  0  0
  9 14  1  0  0  0  0
 10 11  1  6  0  0  0
 10 12  1  0  0  0  0
 12 13  1  0  0  0  0
 14 15  1  0  0  0  0
 14 16  1  0  0  0  0
 16 17  2  0  0  0  0
 16 18  1  0  0  0  0
 19 20  2  0  0  0  0
 19 21  1  0  0  0  0
 22 21  1  1  0  0  0
 22 23  1  0  0  0  0
 22 26  1  0  0  0  0
 23 24  1  6  0  0  0
 23 25  1  0  0  0  0
 26 27  2  0  0  0  0
 26 28  1  0  0  0  0
 29 28  1  6  0  0  0
 29 30  1  0  0  0  0
 29 34  1  0  0  0  0
 30 31  1  0  0  0  0
 31 32  1  0  0  0  0
 31 33  1  0  0  0  0
 34 35  2  0  0  0  0
 36 34  1  6  0  0  0
 36 37  1  1  0  0  0
 36 38  1  0  0  0  0
 36 39  1  0  0  0  0
 38 39  1  0  0  0  0
M  END
>  <Compound name >
CHEMBL207990

$$$$
CHEMBL64925
  MOE2019           2D

 34 34  0  0  1  0  0  0  0  0999 V2000
   -0.7600    0.7600    0.0000 C   0  0  0  0  0  0  0  0  0  0  0  0
   -0.7600    2.2600    0.0000 C   0  0  0  0  0  0  0  0  0  0  0  0
   -2.0590    3.0100    0.0000 C   0  0  0  0  0  0  0  0  0  0  0  0
    0.5390    3.0100    0.0000 C   0  0  0  0  0  0  0  0  0  0  0  0
    0.5390    4.5100    0.0000 C   0  0  2  0  0  0  0  0  0  0  0  0
    1.8380    5.2600    0.0000 N   0  0  0  0  0  0  0  0  0  0  0  0
    1.8380    6.7600    0.0000 C   0  0  0  0  0  0  0  0  0  0  0  0
    0.5390    7.5100    0.0000 O   0  0  0  0  0  0  0  0  0  0  0  0
    3.1370    7.5100    0.0000 C   0  0  2  0  0  0  0  0  0  0  0  0
    3.1370    9.0100    0.0000 C   0  0  0  0  0  0  0  0  0  0  0  0
    1.8380    9.7600    0.0000 C   0  0  0  0  0  0  0  0  0  0  0  0
    0.5390    9.0100    0.0000 C   0  0  0  0  0  0  0  0  0  0  0  0
    1.8380   11.2600    0.0000 C   0  0  0  0  0  0  0  0  0  0  0  0
    4.4360    6.7600    0.0000 N   0  0  0  0  0  0  0  0  0  0  0  0
    5.7350    7.5100    0.0000 C   0  0  0  0  0  0  0  0  0  0  0  0
    5.7350    9.0100    0.0000 O   0  0  0  0  0  0  0  0  0  0  0  0
    7.0340    6.7600    0.0000 C   0  0  2  0  0  0  0  0  0  0  0  0
    7.0340    5.2600    0.0000 C   0  0  0  0  0  0  0  0  0  0  0  0
    5.7350    4.5100    0.0000 C   0  0  0  0  0  0  0  0  0  0  0  0
    5.7350    3.0100    0.0000 C   0  0  0  0  0  0  0  0  0  0  0  0
    4.4360    5.2600    0.0000 C   0  0  0  0  0  0  0  0  0  0  0  0
    8.3330    7.5100    0.0000 N   0  0  0  0  0  0  0  0  0  0  0  0
    9.6320    6.7600    0.0000 C   0  0  0  0  0  0  0  0  0  0  0  0
    9.6320    5.2600    0.0000 O   0  0  0  0  0  0  0  0  0  0  0  0
   10.9310    7.5100    0.0000 O   0  0  0  0  0  0  0  0  0  0  0  0
   12.2300    6.7600    0.0000 C   0  0  0  0  0  0  0  0  0  0  0  0
   13.5300    7.5100    0.0000 C   0  0  0  0  0  0  0  0  0  0  0  0
   14.8290    6.7600    0.0000 C   0  0  0  0  0  0  0  0  0  0  0  0
   16.1280    7.5100    0.0000 C   0  0  0  0  0  0  0  0  0  0  0  0
   16.1280    9.0100    0.0000 C   0  0  0  0  0  0  0  0  0  0  0  0
   14.8290    9.7600    0.0000 C   0  0  0  0  0  0  0  0  0  0  0  0
   13.5300    9.0100    0.0000 C   0  0  0  0  0  0  0  0  0  0  0  0
   -0.7600    5.2600    0.0000 C   0  0  0  0  0  0  0  0  0  0  0  0
   -2.0590    4.5100    0.0000 O   0  0  0  0  0  0  0  0  0  0  0  0
  1  2  1  0  0  0  0
  2  3  1  0  0  0  0
  2  4  1  0  0  0  0
  5  4  1  1  0  0  0
  5  6  1  0  0  0  0
  5 33  1  0  0  0  0
  6  7  1  0  0  0  0
  7  8  2  0  0  0  0
  9  7  1  6  0  0  0
  9 10  1  0  0  0  0
  9 14  1  0  0  0  0
 10 11  1  0  0  0  0
 11 12  1  0  0  0  0
 11 13  1  0  0  0  0
 14 15  1  0  0  0  0
 15 16  2  0  0  0  0
 17 15  1  1  0  0  0
 17 18  1  0  0  0  0
 17 22  1  0  0  0  0
 18 19  1  0  0  0  0
 19 20  1  0  0  0  0
 19 21  1  0  0  0  0
 22 23  1  0  0  0  0
 23 24  2  0  0  0  0
 23 25  1  0  0  0  0
 25 26  1  0  0  0  0
 26 27  1  0  0  0  0
 27 28  1  0  0  0  0
 27 32  2  0  0  0  0
 28 29  2  0  0  0  0
 29 30  1  0  0  0  0
 30 31  2  0  0  0  0
 31 32  1  0  0  0  0
 33 34  2  0  0  0  0
M  END
>  <Compound name >
CHEMBL64925

$$$$
CHEMBL1328505
  MOE2019           2D

 26 28  0  0  0  0  0  0  0  0999 V2000
    0.3000   -1.0680    0.0000 C   0  0  0  0  0  0  0  0  0  0  0  0
    1.5810   -0.2890    0.0000 C   0  0  0  0  0  0  0  0  0  0  0  0
    0.2530    0.4080    0.0000 C   0  0  0  0  0  0  0  0  0  0  0  0
    2.3350    1.0080    0.0000 C   0  0  0  0  0  0  0  0  0  0  0  0
    3.8350    1.0030    0.0000 C   0  0  0  0  0  0  0  0  0  0  0  0
    4.5810   -0.2980    0.0000 C   0  0  0  0  0  0  0  0  0  0  0  0
    3.8270   -1.5950    0.0000 C   0  0  0  0  0  0  0  0  0  0  0  0
    2.3270   -1.5900    0.0000 O   0  0  0  0  0  0  0  0  0  0  0  0
    6.0490    0.0090    0.0000 S   0  0  0  0  0  0  0  0  0  0  0  0
    6.2110    1.5000    0.0000 C   0  0  0  0  0  0  0  0  0  0  0  0
    7.5120    2.2460    0.0000 N   0  0  0  0  0  0  0  0  0  0  0  0
    8.8090    1.4920    0.0000 C   0  0  0  0  0  0  0  0  0  0  0  0
    8.8040   -0.0080    0.0000 S   0  0  0  0  0  0  0  0  0  0  0  0
   10.1100    2.2380    0.0000 N   0  0  0  0  0  0  0  0  0  0  0  0
   11.4070    1.4840    0.0000 C   0  0  0  0  0  0  0  0  0  0  0  0
   11.4020   -0.0160    0.0000 O   0  0  0  0  0  0  0  0  0  0  0  0
   12.7080    2.2300    0.0000 C   0  0  0  0  0  0  0  0  0  0  0  0
   12.7130    3.7300    0.0000 C   0  0  0  0  0  0  0  0  0  0  0  0
   14.0140    4.4760    0.0000 C   0  0  0  0  0  0  0  0  0  0  0  0
   15.3110    3.7220    0.0000 C   0  0  0  0  0  0  0  0  0  0  0  0
   15.3060    2.2220    0.0000 C   0  0  0  0  0  0  0  0  0  0  0  0
   14.0050    1.4760    0.0000 C   0  0  0  0  0  0  0  0  0  0  0  0
    4.8420    2.1150    0.0000 C   0  0  0  0  0  0  0  0  0  0  0  0
    4.5350    3.5830    0.0000 C   0  0  0  0  0  0  0  0  0  0  0  0
    5.6530    4.5830    0.0000 O   0  0  0  0  0  0  0  0  0  0  0  0
    3.1100    4.0510    0.0000 O   0  0  0  0  0  0  0  0  0  0  0  0
  1  2  1  0  0  0  0
  2  3  1  0  0  0  0
  2  4  1  0  0  0  0
  2  8  1  0  0  0  0
  4  5  1  0  0  0  0
  5  6  2  0  0  0  0
  5 23  1  0  0  0  0
  6  7  1  0  0  0  0
  6  9  1  0  0  0  0
  7  8  1  0  0  0  0
  9 10  1  0  0  0  0
 10 11  1  0  0  0  0
 10 23  2  0  0  0  0
 11 12  1  0  0  0  0
 12 13  2  0  0  0  0
 12 14  1  0  0  0  0
 14 15  1  0  0  0  0
 15 16  2  0  0  0  0
 15 17  1  0  0  0  0
 17 18  1  0  0  0  0
 17 22  2  0  0  0  0
 18 19  2  0  0  0  0
 19 20  1  0  0  0  0
 20 21  2  0  0  0  0
 21 22  1  0  0  0  0
 23 24  1  0  0  0  0
 24 25  2  0  0  0  0
 24 26  1  0  0  0  0
M  END
>  <Compound name >
CHEMBL1328505

$$$$
CHEMBL384759
  MOE2019           2D

 28 30  0  0  1  0  0  0  0  0999 V2000
   -0.8920    9.6170    0.0000 N   0  0  0  0  0  0  0  0  0  0  0  0
   -1.3810    8.1990    0.0000 C   0  0  0  0  0  0  0  0  0  0  0  0
   -0.3980    7.0660    0.0000 N   0  0  0  0  0  0  0  0  0  0  0  0
   -0.8870    5.6480    0.0000 C   0  0  0  0  0  0  0  0  0  0  0  0
   -2.3600    5.3630    0.0000 C   0  0  0  0  0  0  0  0  0  0  0  0
   -2.5440    3.8740    0.0000 N   0  0  0  0  0  0  0  0  0  0  0  0
   -1.1840    3.2390    0.0000 C   0  0  0  0  0  0  0  0  0  0  0  0
   -0.1610    4.3360    0.0000 N   0  0  0  0  0  0  0  0  0  0  0  0
    1.3280    4.1520    0.0000 C   0  0  2  0  0  0  0  0  0  0  0  0
    2.3520    5.2480    0.0000 O   0  0  0  0  0  0  0  0  0  0  0  0
    3.7110    4.6140    0.0000 C   0  0  2  0  0  0  0  0  0  0  0  0
    5.0230    5.3400    0.0000 C   0  0  0  0  0  0  0  0  0  0  0  0
    6.3080    4.5660    0.0000 O   0  0  0  0  0  0  0  0  0  0  0  0
    7.6210    5.2930    0.0000 P   0  0  3  0  0  0  0  0  0  0  0  0
    8.3470    3.9800    0.0000 O   0  0  0  0  0  0  0  0  0  0  0  0
    6.8940    6.6050    0.0000 O   0  0  0  0  0  0  0  0  0  0  0  0
    8.9330    6.0190    0.0000 O   0  0  0  0  0  0  0  0  0  0  0  0
   10.2180    5.2460    0.0000 P   0  0  0  0  0  0  0  0  0  0  0  0
    9.4450    3.9610    0.0000 O   0  0  0  0  0  0  0  0  0  0  0  0
   10.9920    6.5310    0.0000 O   0  0  0  0  0  0  0  0  0  0  0  0
   11.5040    4.4720    0.0000 O   0  0  0  0  0  0  0  0  0  0  0  0
    3.5270    3.1250    0.0000 C   0  0  1  0  0  0  0  0  0  0  0  0
    4.6230    2.1010    0.0000 O   0  0  0  0  0  0  0  0  0  0  0  0
    2.0540    2.8400    0.0000 C   0  0  1  0  0  0  0  0  0  0  0  0
    1.4200    1.4810    0.0000 O   0  0  0  0  0  0  0  0  0  0  0  0
   -3.3430    6.4960    0.0000 C   0  0  0  0  0  0  0  0  0  0  0  0
   -4.8160    6.2100    0.0000 O   0  0  0  0  0  0  0  0  0  0  0  0
   -2.8540    7.9140    0.0000 N   0  0  0  0  0  0  0  0  0  0  0  0
  1  2  1  0  0  0  0
  2  3  2  0  0  0  0
  2 28  1  0  0  0  0
  3  4  1  0  0  0  0
  4  5  2  0  0  0  0
  4  8  1  0  0  0  0
  5  6  1  0  0  0  0
  5 26  1  0  0  0  0
  6  7  2  0  0  0  0
  7  8  1  0  0  0  0
  9  8  1  6  0  0  0
  9 10  1  0  0  0  0
  9 24  1  0  0  0  0
 10 11  1  0  0  0  0
 11 12  1  6  0  0  0
 11 22  1  0  0  0  0
 12 13  1  0  0  0  0
 13 14  1  0  0  0  0
 14 15  2  0  0  0  0
 14 16  1  0  0  0  0
 14 17  1  0  0  0  0
 17 18  1  0  0  0  0
 18 19  2  0  0  0  0
 18 20  1  0  0  0  0
 18 21  1  0  0  0  0
 22 23  1  1  0  0  0
 22 24  1  0  0  0  0
 24 25  1  1  0  0  0
 26 27  2  0  0  0  0
 26 28  1  0  0  0  0
M  END
>  <Compound name >
CHEMBL384759

$$$$
CHEMBL191003
  MOE2019           2D

 27 29  0  0  0  0  0  0  0  0999 V2000
    1.6290    3.7750    0.0000 N   0  0  0  0  0  0  0  0  0  0  0  0
    2.1700    2.3760    0.0000 C   0  0  0  0  0  0  0  0  0  0  0  0
    3.6200    1.9920    0.0000 N   0  0  0  0  0  0  0  0  0  0  0  0
    3.7020    0.4940    0.0000 C   0  0  0  0  0  0  0  0  0  0  0  0
    4.9620   -0.3200    0.0000 N   0  0  0  0  0  0  0  0  0  0  0  0
    6.2960    0.3640    0.0000 C   0  0  0  0  0  0  0  0  0  0  0  0
    6.3710    1.8620    0.0000 C   0  0  0  0  0  0  0  0  0  0  0  0
    7.7060    2.5460    0.0000 C   0  0  0  0  0  0  0  0  0  0  0  0
    8.9660    1.7330    0.0000 C   0  0  0  0  0  0  0  0  0  0  0  0
    8.8910    0.2340    0.0000 C   0  0  0  0  0  0  0  0  0  0  0  0
    7.5560   -0.4500    0.0000 C   0  0  0  0  0  0  0  0  0  0  0  0
   10.3010    2.4170    0.0000 S   0  0  0  0  0  0  0  0  0  0  0  0
    9.6170    3.7520    0.0000 O   0  0  0  0  0  0  0  0  0  0  0  0
   10.9850    1.0820    0.0000 O   0  0  0  0  0  0  0  0  0  0  0  0
   11.6360    3.1010    0.0000 N   0  0  0  0  0  0  0  0  0  0  0  0
    2.3030   -0.0470    0.0000 N   0  0  0  0  0  0  0  0  0  0  0  0
    1.3560    1.1160    0.0000 N   0  0  0  0  0  0  0  0  0  0  0  0
   -0.1420    1.0340    0.0000 C   0  0  0  0  0  0  0  0  0  0  0  0
   -0.9620    2.2900    0.0000 O   0  0  0  0  0  0  0  0  0  0  0  0
   -0.8200   -0.3040    0.0000 C   0  0  0  0  0  0  0  0  0  0  0  0
   -2.3170   -0.3860    0.0000 C   0  0  0  0  0  0  0  0  0  0  0  0
   -3.1370    0.8700    0.0000 F   0  0  0  0  0  0  0  0  0  0  0  0
   -2.9950   -1.7240    0.0000 C   0  0  0  0  0  0  0  0  0  0  0  0
   -2.1750   -2.9800    0.0000 C   0  0  0  0  0  0  0  0  0  0  0  0
   -0.6770   -2.8980    0.0000 C   0  0  0  0  0  0  0  0  0  0  0  0
    0.0000   -1.5600    0.0000 C   0  0  0  0  0  0  0  0  0  0  0  0
    1.4980   -1.4780    0.0000 F   0  0  0  0  0  0  0  0  0  0  0  0
  1  2  1  0  0  0  0
  2  3  2  0  0  0  0
  2 17  1  0  0  0  0
  3  4  1  0  0  0  0
  4  5  1  0  0  0  0
  4 16  2  0  0  0  0
  5  6  1  0  0  0  0
  6  7  1  0  0  0  0
  6 11  2  0  0  0  0
  7  8  2  0  0  0  0
  8  9  1  0  0  0  0
  9 10  2  0  0  0  0
  9 12  1  0  0  0  0
 10 11  1  0  0  0  0
 12 13  2  0  0  0  0
 12 14  2  0  0  0  0
 12 15  1  0  0  0  0
 16 17  1  0  0  0  0
 17 18  1  0  0  0  0
 18 19  2  0  0  0  0
 18 20  1  0  0  0  0
 20 21  1  0  0  0  0
 20 26  2  0  0  0  0
 21 22  1  0  0  0  0
 21 23  2  0  0  0  0
 23 24  1  0  0  0  0
 24 25  2  0  0  0  0
 25 26  1  0  0  0  0
 26 27  1  0  0  0  0
M  END
>  <Compound name >
CHEMBL191003

$$$$
CHEMBL3770443
  MOE2019           2D

 35 39  0  0  0  0  0  0  0  0999 V2000
   -1.0930    1.8930    0.0000 C   0  0  0  0  0  0  0  0  0  0  0  0
   -0.3430    3.1920    0.0000 N   0  0  0  0  0  0  0  0  0  0  0  0
    1.1570    3.1920    0.0000 C   0  0  0  0  0  0  0  0  0  0  0  0
    1.9070    1.8930    0.0000 N   0  0  0  0  0  0  0  0  0  0  0  0
    3.4070    1.8930    0.0000 C   0  0  0  0  0  0  0  0  0  0  0  0
    4.1570    3.1920    0.0000 C   0  0  0  0  0  0  0  0  0  0  0  0
    5.6570    3.1920    0.0000 C   0  0  0  0  0  0  0  0  0  0  0  0
    6.4070    4.4910    0.0000 C   0  0  0  0  0  0  0  0  0  0  0  0
    5.6570    5.7900    0.0000 C   0  0  0  0  0  0  0  0  0  0  0  0
    6.4070    7.0890    0.0000 O   0  0  0  0  0  0  0  0  0  0  0  0
    4.1570    5.7900    0.0000 N   0  0  0  0  0  0  0  0  0  0  0  0
    3.4070    7.0890    0.0000 C   0  0  0  0  0  0  0  0  0  0  0  0
    4.1570    8.3880    0.0000 C   0  0  0  0  0  0  0  0  0  0  0  0
    3.4070    9.6870    0.0000 O   0  0  0  0  0  0  0  0  0  0  0  0
    4.1570   10.9860    0.0000 C   0  0  0  0  0  0  0  0  0  0  0  0
    5.6570   10.9860    0.0000 C   0  0  0  0  0  0  0  0  0  0  0  0
    6.4070   12.2850    0.0000 N   0  0  0  0  0  0  0  0  0  0  0  0
    6.4070    9.6870    0.0000 C   0  0  0  0  0  0  0  0  0  0  0  0
    5.6570    8.3880    0.0000 O   0  0  0  0  0  0  0  0  0  0  0  0
    3.4070    4.4910    0.0000 C   0  0  0  0  0  0  0  0  0  0  0  0
    1.9070    4.4910    0.0000 N   0  0  0  0  0  0  0  0  0  0  0  0
    7.9070    4.4910    0.0000 C   0  0  0  0  0  0  0  0  0  0  0  0
    8.6570    5.7900    0.0000 C   0  0  0  0  0  0  0  0  0  0  0  0
   10.1570    5.7900    0.0000 C   0  0  0  0  0  0  0  0  0  0  0  0
   10.9070    4.4910    0.0000 C   0  0  0  0  0  0  0  0  0  0  0  0
   10.1570    3.1920    0.0000 C   0  0  0  0  0  0  0  0  0  0  0  0
    8.6570    3.1920    0.0000 C   0  0  0  0  0  0  0  0  0  0  0  0
    7.9070    1.8930    0.0000 Cl  0  0  0  0  0  0  0  0  0  0  0  0
   12.4070    4.4910    0.0000 C   0  0  0  0  0  0  0  0  0  0  0  0
   13.1570    5.7900    0.0000 C   0  0  0  0  0  0  0  0  0  0  0  0
   14.6570    5.7900    0.0000 C   0  0  0  0  0  0  0  0  0  0  0  0
   15.4070    4.4910    0.0000 C   0  0  0  0  0  0  0  0  0  0  0  0
   14.6570    3.1920    0.0000 C   0  0  0  0  0  0  0  0  0  0  0  0
   15.4070    1.8930    0.0000 C   0  0  0  0  0  0  0  0  0  0  0  0
   13.1570    3.1920    0.0000 N   0  0  0  0  0  0  0  0  0  0  0  0
  1  2  1  0  0  0  0
  2  3  1  0  0  0  0
  3  4  1  0  0  0  0
  3 21  2  0  0  0  0
  4  5  2  0  0  0  0
  5  6  1  0  0  0  0
  6  7  1  0  0  0  0
  6 20  2  0  0  0  0
  7  8  2  0  0  0  0
  8  9  1  0  0  0  0
  8 22  1  0  0  0  0
  9 10  2  0  0  0  0
  9 11  1  0  0  0  0
 11 12  1  0  0  0  0
 11 20  1  0  0  0  0
 12 13  1  0  0  0  0
 13 14  1  0  0  0  0
 13 19  1  0  0  0  0
 14 15  1  0  0  0  0
 15 16  1  0  0  0  0
 16 17  1  0  0  0  0
 16 18  1  0  0  0  0
 18 19  1  0  0  0  0
 20 21  1  0  0  0  0
 22 23  1  0  0  0  0
 22 27  2  0  0  0  0
 23 24  2  0  0  0  0
 24 25  1  0  0  0  0
 25 26  2  0  0  0  0
 25 29  1  0  0  0  0
 26 27  1  0  0  0  0
 27 28  1  0  0  0  0
 29 30  1  0  0  0  0
 29 35  2  0  0  0  0
 30 31  2  0  0  0  0
 31 32  1  0  0  0  0
 32 33  2  0  0  0  0
 33 34  1  0  0  0  0
 33 35  1  0  0  0  0
M  END
>  <Compound name >
CHEMBL3770443

$$$$
CHEMBL450786
  MOE2019           2D

 43 48  0  0  1  0  0  0  0  0999 V2000
    9.1700   -2.1500    0.0000 C   0  0  0  0  0  0  0  0  0  0  0  0
    8.2990   -0.9290    0.0000 C   0  0  0  0  0  0  0  0  0  0  0  0
    6.7990   -0.9160    0.0000 N   0  0  0  0  0  0  0  0  0  0  0  0
    6.3480    0.5150    0.0000 C   0  0  0  0  0  0  0  0  0  0  0  0
    4.9260    0.9910    0.0000 C   0  0  0  0  0  0  0  0  0  0  0  0
    3.8020   -0.0030    0.0000 C   0  0  0  0  0  0  0  0  0  0  0  0
    3.9460   -1.4960    0.0000 C   0  0  0  0  0  0  0  0  0  0  0  0
    5.2390   -2.2570    0.0000 O   0  0  0  0  0  0  0  0  0  0  0  0
    2.5710   -2.0950    0.0000 N   0  0  0  0  0  0  0  0  0  0  0  0
    1.5770   -0.9710    0.0000 C   0  0  0  0  0  0  0  0  0  0  0  0
    0.0770   -0.9580    0.0000 C   0  0  0  0  0  0  0  0  0  0  0  0
   -0.6620    0.3470    0.0000 C   0  0  0  0  0  0  0  0  0  0  0  0
    0.0990    1.6400    0.0000 C   0  0  0  0  0  0  0  0  0  0  0  0
    1.5990    1.6270    0.0000 C   0  0  0  0  0  0  0  0  0  0  0  0
    2.3380    0.3210    0.0000 C   0  0  0  0  0  0  0  0  0  0  0  0
   -0.6400    2.9450    0.0000 S   0  0  0  0  0  0  0  0  0  0  0  0
    0.6660    3.6840    0.0000 O   0  0  0  0  0  0  0  0  0  0  0  0
   -1.9450    2.2070    0.0000 O   0  0  0  0  0  0  0  0  0  0  0  0
   -1.3780    4.2510    0.0000 C   0  0  0  0  0  0  0  0  0  0  0  0
   -2.8780    4.2640    0.0000 C   0  0  0  0  0  0  0  0  0  0  0  0
   -3.6400    2.9710    0.0000 C   0  0  0  0  0  0  0  0  0  0  0  0
   -2.9010    1.6660    0.0000 Cl  0  0  0  0  0  0  0  0  0  0  0  0
   -5.1390    2.9840    0.0000 C   0  0  0  0  0  0  0  0  0  0  0  0
   -5.8780    4.2900    0.0000 C   0  0  0  0  0  0  0  0  0  0  0  0
   -5.1170    5.5820    0.0000 C   0  0  0  0  0  0  0  0  0  0  0  0
   -3.6170    5.5690    0.0000 C   0  0  0  0  0  0  0  0  0  0  0  0
   -2.8560    6.8620    0.0000 Cl  0  0  0  0  0  0  0  0  0  0  0  0
    7.5690    1.3860    0.0000 C   0  0  0  0  0  0  0  0  0  0  0  0
    7.5820    2.8860    0.0000 C   0  0  0  0  0  0  0  0  0  0  0  0
    8.7750    0.4940    0.0000 C   0  0  0  0  0  0  0  0  0  0  0  0
   10.2060    0.9450    0.0000 C   0  0  0  0  0  0  0  0  0  0  0  0
   10.5300    2.4100    0.0000 O   0  0  0  0  0  0  0  0  0  0  0  0
   11.3120   -0.0680    0.0000 N   0  0  0  0  0  0  0  0  0  0  0  0
   11.1420   -1.5580    0.0000 C   0  0  0  0  0  0  0  0  0  0  0  0
   12.5070   -2.1800    0.0000 C   0  0  0  0  0  0  0  0  0  0  0  0
   13.5200   -1.0740    0.0000 C   0  0  0  0  0  0  0  0  0  0  0  0
   12.7810    0.2310    0.0000 C   0  0  2  0  0  0  0  0  0  0  0  0
   13.4030    1.5960    0.0000 C   0  0  0  0  0  0  0  0  0  0  0  0
   14.8960    1.7400    0.0000 N   0  0  0  0  0  0  0  0  0  0  0  0
   15.6580    3.0320    0.0000 C   0  0  0  0  0  0  0  0  0  0  0  0
   17.1220    2.7080    0.0000 C   0  0  0  0  0  0  0  0  0  0  0  0
   17.2660    1.2150    0.0000 C   0  0  0  0  0  0  0  0  0  0  0  0
   15.8910    0.6170    0.0000 C   0  0  0  0  0  0  0  0  0  0  0  0
  1  2  1  0  0  0  0
  2  3  1  0  0  0  0
  2 30  2  0  0  0  0
  3  4  1  0  0  0  0
  4  5  1  0  0  0  0
  4 28  2  0  0  0  0
  5  6  2  0  0  0  0
  6  7  1  0  0  0  0
  6 15  1  0  0  0  0
  7  8  2  0  0  0  0
  7  9  1  0  0  0  0
  9 10  1  0  0  0  0
 10 11  1  0  0  0  0
 10 15  2  0  0  0  0
 11 12  2  0  0  0  0
 12 13  1  0  0  0  0
 13 14  2  0  0  0  0
 13 16  1  0  0  0  0
 14 15  1  0  0  0  0
 16 17  2  0  0  0  0
 16 18  2  0  0  0  0
 16 19  1  0  0  0  0
 19 20  1  0  0  0  0
 20 21  1  0  0  0  0
 20 26  2  0  0  0  0
 21 22  1  0  0  0  0
 21 23  2  0  0  0  0
 23 24  1  0  0  0  0
 24 25  2  0  0  0  0
 25 26  1  0  0  0  0
 26 27  1  0  0  0  0
 28 29  1  0  0  0  0
 28 30  1  0  0  0  0
 30 31  1  0  0  0  0
 31 32  2  0  0  0  0
 31 33  1  0  0  0  0
 33 34  1  0  0  0  0
 33 37  1  0  0  0  0
 34 35  1  0  0  0  0
 35 36  1  0  0  0  0
 36 37  1  0  0  0  0
 37 38  1  1  0  0  0
 38 39  1  0  0  0  0
 39 40  1  0  0  0  0
 39 43  1  0  0  0  0
 40 41  1  0  0  0  0
 41 42  1  0  0  0  0
 42 43  1  0  0  0  0
M  END
>  <Compound name >
CHEMBL450786

$$$$
CHEMBL572878
  MOE2019           2D

 33 37  0  0  0  0  0  0  0  0999 V2000
    1.1310   -4.5750    0.0000 C   0  0  0  0  0  0  0  0  0  0  0  0
    2.4280   -3.8220    0.0000 N   0  0  0  0  0  0  0  0  0  0  0  0
    3.7290   -4.5690    0.0000 C   0  0  0  0  0  0  0  0  0  0  0  0
    5.0260   -3.8160    0.0000 C   0  0  0  0  0  0  0  0  0  0  0  0
    5.0220   -2.3160    0.0000 N   0  0  0  0  0  0  0  0  0  0  0  0
    3.7220   -1.5690    0.0000 C   0  0  0  0  0  0  0  0  0  0  0  0
    2.4240   -2.3220    0.0000 C   0  0  0  0  0  0  0  0  0  0  0  0
    6.3200   -1.5630    0.0000 C   0  0  0  0  0  0  0  0  0  0  0  0
    6.3160   -0.0630    0.0000 C   0  0  0  0  0  0  0  0  0  0  0  0
    7.6130    0.6900    0.0000 C   0  0  0  0  0  0  0  0  0  0  0  0
    7.6100    2.1900    0.0000 N   0  0  0  0  0  0  0  0  0  0  0  0
    6.3090    2.9370    0.0000 C   0  0  0  0  0  0  0  0  0  0  0  0
    6.1480    4.4280    0.0000 C   0  0  0  0  0  0  0  0  0  0  0  0
    4.6810    4.7370    0.0000 C   0  0  0  0  0  0  0  0  0  0  0  0
    4.0670    6.1060    0.0000 C   0  0  0  0  0  0  0  0  0  0  0  0
    3.9340    3.4360    0.0000 N   0  0  0  0  0  0  0  0  0  0  0  0
    4.9400    2.3240    0.0000 N   0  0  0  0  0  0  0  0  0  0  0  0
    8.9140   -0.0570    0.0000 N   0  0  0  0  0  0  0  0  0  0  0  0
    8.9180   -1.5570    0.0000 C   0  0  0  0  0  0  0  0  0  0  0  0
   10.2190   -2.3040    0.0000 S   0  0  0  0  0  0  0  0  0  0  0  0
   11.5160   -1.5500    0.0000 C   0  0  0  0  0  0  0  0  0  0  0  0
   12.8170   -2.2970    0.0000 C   0  0  0  0  0  0  0  0  0  0  0  0
   14.1140   -1.5440    0.0000 C   0  0  0  0  0  0  0  0  0  0  0  0
   14.1100   -0.0440    0.0000 C   0  0  0  0  0  0  0  0  0  0  0  0
   15.4080    0.7090    0.0000 N   0  0  0  0  0  0  0  0  0  0  0  0
   16.7080   -0.0380    0.0000 C   0  0  0  0  0  0  0  0  0  0  0  0
   16.7120   -1.5380    0.0000 O   0  0  0  0  0  0  0  0  0  0  0  0
   18.0060    0.7150    0.0000 C   0  0  0  0  0  0  0  0  0  0  0  0
   18.7520    2.0160    0.0000 C   0  0  0  0  0  0  0  0  0  0  0  0
   19.5060    0.7190    0.0000 C   0  0  0  0  0  0  0  0  0  0  0  0
   12.8090    0.7030    0.0000 C   0  0  0  0  0  0  0  0  0  0  0  0
   11.5120   -0.0500    0.0000 C   0  0  0  0  0  0  0  0  0  0  0  0
    7.6210   -2.3100    0.0000 N   0  0  0  0  0  0  0  0  0  0  0  0
  1  2  1  0  0  0  0
  2  3  1  0  0  0  0
  2  7  1  0  0  0  0
  3  4  1  0  0  0  0
  4  5  1  0  0  0  0
  5  6  1  0  0  0  0
  5  8  1  0  0  0  0
  6  7  1  0  0  0  0
  8  9  1  0  0  0  0
  8 33  2  0  0  0  0
  9 10  2  0  0  0  0
 10 11  1  0  0  0  0
 10 18  1  0  0  0  0
 11 12  1  0  0  0  0
 12 13  1  0  0  0  0
 12 17  2  0  0  0  0
 13 14  2  0  0  0  0
 14 15  1  0  0  0  0
 14 16  1  0  0  0  0
 16 17  1  0  0  0  0
 18 19  2  0  0  0  0
 19 20  1  0  0  0  0
 19 33  1  0  0  0  0
 20 21  1  0  0  0  0
 21 22  1  0  0  0  0
 21 32  2  0  0  0  0
 22 23  2  0  0  0  0
 23 24  1  0  0  0  0
 24 25  1  0  0  0  0
 24 31  2  0  0  0  0
 25 26  1  0  0  0  0
 26 27  2  0  0  0  0
 26 28  1  0  0  0  0
 28 29  1  0  0  0  0
 28 30  1  0  0  0  0
 29 30  1  0  0  0  0
 31 32  1  0  0  0  0
M  END
>  <Compound name >
CHEMBL572878

$$$$
CHEMBL509032
  MOE2019           2D

 42 46  0  0  0  0  0  0  0  0999 V2000
    5.6250    3.2480    0.0000 C   0  0  0  0  0  0  0  0  0  0  0  0
    4.8750    1.9490    0.0000 O   0  0  0  0  0  0  0  0  0  0  0  0
    5.6250    0.6500    0.0000 C   0  0  0  0  0  0  0  0  0  0  0  0
    7.1250    0.6500    0.0000 C   0  0  0  0  0  0  0  0  0  0  0  0
    7.8750   -0.6500    0.0000 C   0  0  0  0  0  0  0  0  0  0  0  0
    7.1250   -1.9490    0.0000 C   0  0  0  0  0  0  0  0  0  0  0  0
    5.6250   -1.9490    0.0000 C   0  0  0  0  0  0  0  0  0  0  0  0
    4.8750   -0.6500    0.0000 C   0  0  0  0  0  0  0  0  0  0  0  0
    3.3750   -0.6500    0.0000 N   0  0  0  0  0  0  0  0  0  0  0  0
    2.6250   -1.9490    0.0000 C   0  0  0  0  0  0  0  0  0  0  0  0
    3.3750   -3.2480    0.0000 N   0  0  0  0  0  0  0  0  0  0  0  0
    2.6250   -4.5470    0.0000 C   0  0  0  0  0  0  0  0  0  0  0  0
    1.1250   -4.5470    0.0000 C   0  0  0  0  0  0  0  0  0  0  0  0
    0.3750   -5.8460    0.0000 Cl  0  0  0  0  0  0  0  0  0  0  0  0
    0.3750   -3.2480    0.0000 C   0  0  0  0  0  0  0  0  0  0  0  0
   -1.1250   -3.2480    0.0000 N   0  0  0  0  0  0  0  0  0  0  0  0
   -1.8750   -1.9490    0.0000 C   0  0  0  0  0  0  0  0  0  0  0  0
   -1.1250   -0.6500    0.0000 C   0  0  0  0  0  0  0  0  0  0  0  0
   -1.8750    0.6500    0.0000 C   0  0  0  0  0  0  0  0  0  0  0  0
   -3.3750    0.6500    0.0000 C   0  0  0  0  0  0  0  0  0  0  0  0
   -4.1250   -0.6500    0.0000 C   0  0  0  0  0  0  0  0  0  0  0  0
   -3.3750   -1.9490    0.0000 C   0  0  0  0  0  0  0  0  0  0  0  0
   -4.1250   -3.2480    0.0000 S   0  0  0  0  0  0  0  0  0  0  0  0
   -2.8260   -3.9980    0.0000 O   0  0  0  0  0  0  0  0  0  0  0  0
   -5.4240   -2.4980    0.0000 O   0  0  0  0  0  0  0  0  0  0  0  0
   -4.8750   -4.5470    0.0000 C   0  0  0  0  0  0  0  0  0  0  0  0
   -4.1250   -5.8460    0.0000 C   0  0  0  0  0  0  0  0  0  0  0  0
   -6.3750   -4.5470    0.0000 C   0  0  0  0  0  0  0  0  0  0  0  0
    1.1250   -1.9490    0.0000 N   0  0  0  0  0  0  0  0  0  0  0  0
    9.3750   -0.6500    0.0000 N   0  0  0  0  0  0  0  0  0  0  0  0
   10.1250   -1.9490    0.0000 C   0  0  0  0  0  0  0  0  0  0  0  0
   11.6250   -1.9490    0.0000 C   0  0  0  0  0  0  0  0  0  0  0  0
   12.3750   -0.6500    0.0000 C   0  0  0  0  0  0  0  0  0  0  0  0
   11.6250    0.6500    0.0000 C   0  0  0  0  0  0  0  0  0  0  0  0
   10.1250    0.6500    0.0000 C   0  0  0  0  0  0  0  0  0  0  0  0
   13.8750   -0.6500    0.0000 N   0  0  0  0  0  0  0  0  0  0  0  0
   14.6250    0.6500    0.0000 C   0  0  0  0  0  0  0  0  0  0  0  0
   16.1250    0.6500    0.0000 C   0  0  0  0  0  0  0  0  0  0  0  0
   16.8750   -0.6500    0.0000 N   0  0  0  0  0  0  0  0  0  0  0  0
   18.3750   -0.6500    0.0000 C   0  0  0  0  0  0  0  0  0  0  0  0
   16.1250   -1.9490    0.0000 C   0  0  0  0  0  0  0  0  0  0  0  0
   14.6250   -1.9490    0.0000 C   0  0  0  0  0  0  0  0  0  0  0  0
  1  2  1  0  0  0  0
  2  3  1  0  0  0  0
  3  4  1  0  0  0  0
  3  8  2  0  0  0  0
  4  5  2  0  0  0  0
  5  6  1  0  0  0  0
  5 30  1  0  0  0  0
  6  7  2  0  0  0  0
  7  8  1  0  0  0  0
  8  9  1  0  0  0  0
  9 10  1  0  0  0  0
 10 11  1  0  0  0  0
 10 29  2  0  0  0  0
 11 12  2  0  0  0  0
 12 13  1  0  0  0  0
 13 14  1  0  0  0  0
 13 15  2  0  0  0  0
 15 16  1  0  0  0  0
 15 29  1  0  0  0  0
 16 17  1  0  0  0  0
 17 18  1  0  0  0  0
 17 22  2  0  0  0  0
 18 19  2  0  0  0  0
 19 20  1  0  0  0  0
 20 21  2  0  0  0  0
 21 22  1  0  0  0  0
 22 23  1  0  0  0  0
 23 24  2  0  0  0  0
 23 25  2  0  0  0  0
 23 26  1  0  0  0  0
 26 27  1  0  0  0  0
 26 28  1  0  0  0  0
 30 31  1  0  0  0  0
 30 35  1  0  0  0  0
 31 32  1  0  0  0  0
 32 33  1  0  0  0  0
 33 34  1  0  0  0  0
 33 36  1  0  0  0  0
 34 35  1  0  0  0  0
 36 37  1  0  0  0  0
 36 42  1  0  0  0  0
 37 38  1  0  0  0  0
 38 39  1  0  0  0  0
 39 40  1  0  0  0  0
 39 41  1  0  0  0  0
 41 42  1  0  0  0  0
M  END
>  <Compound name >
CHEMBL509032

$$$$
CHEMBL226838
  MOE2019           2D

 25 28  0  0  0  0  0  0  0  0999 V2000
    1.3300    2.2300    0.0000 C   0  0  0  0  0  0  0  0  0  0  0  0
    2.6920    1.6020    0.0000 C   0  0  0  0  0  0  0  0  0  0  0  0
    3.9170    2.4670    0.0000 C   0  0  0  0  0  0  0  0  0  0  0  0
    5.2790    1.8380    0.0000 C   0  0  0  0  0  0  0  0  0  0  0  0
    5.4150    0.3440    0.0000 C   0  0  0  0  0  0  0  0  0  0  0  0
    4.1900   -0.5210    0.0000 C   0  0  0  0  0  0  0  0  0  0  0  0
    2.8280    0.1080    0.0000 N   0  0  0  0  0  0  0  0  0  0  0  0
    4.3270   -2.0150    0.0000 C   0  0  0  0  0  0  0  0  0  0  0  0
    3.1980   -3.0030    0.0000 N   0  0  0  0  0  0  0  0  0  0  0  0
    3.7900   -4.3820    0.0000 C   0  0  0  0  0  0  0  0  0  0  0  0
    5.2840   -4.2450    0.0000 N   0  0  0  0  0  0  0  0  0  0  0  0
    5.6150   -2.7820    0.0000 C   0  0  0  0  0  0  0  0  0  0  0  0
    6.9940   -2.1910    0.0000 C   0  0  0  0  0  0  0  0  0  0  0  0
    7.1710   -0.7010    0.0000 C   0  0  0  0  0  0  0  0  0  0  0  0
    8.5490   -0.1100    0.0000 C   0  0  0  0  0  0  0  0  0  0  0  0
    9.7510   -1.0080    0.0000 C   0  0  0  0  0  0  0  0  0  0  0  0
   11.2220   -0.7160    0.0000 O   0  0  0  0  0  0  0  0  0  0  0  0
   11.9540   -2.0250    0.0000 C   0  0  0  0  0  0  0  0  0  0  0  0
   10.9360   -3.1260    0.0000 O   0  0  0  0  0  0  0  0  0  0  0  0
    9.5740   -2.4970    0.0000 C   0  0  0  0  0  0  0  0  0  0  0  0
    8.1950   -3.0890    0.0000 C   0  0  0  0  0  0  0  0  0  0  0  0
    3.0220   -5.6700    0.0000 C   0  0  0  0  0  0  0  0  0  0  0  0
    4.3110   -6.4380    0.0000 C   0  0  0  0  0  0  0  0  0  0  0  0
    2.2550   -6.9590    0.0000 C   0  0  0  0  0  0  0  0  0  0  0  0
    1.7330   -4.9030    0.0000 C   0  0  0  0  0  0  0  0  0  0  0  0
  1  2  1  0  0  0  0
  2  3  1  0  0  0  0
  2  7  2  0  0  0  0
  3  4  2  0  0  0  0
  4  5  1  0  0  0  0
  5  6  2  0  0  0  0
  6  7  1  0  0  0  0
  6  8  1  0  0  0  0
  8  9  1  0  0  0  0
  8 12  2  0  0  0  0
  9 10  1  0  0  0  0
 10 11  2  0  0  0  0
 10 22  1  0  0  0  0
 11 12  1  0  0  0  0
 12 13  1  0  0  0  0
 13 14  1  0  0  0  0
 13 21  2  0  0  0  0
 14 15  2  0  0  0  0
 15 16  1  0  0  0  0
 16 17  1  0  0  0  0
 16 20  2  0  0  0  0
 17 18  1  0  0  0  0
 18 19  1  0  0  0  0
 19 20  1  0  0  0  0
 20 21  1  0  0  0  0
 22 23  1  0  0  0  0
 22 24  1  0  0  0  0
 22 25  1  0  0  0  0
M  END
>  <Compound name >
CHEMBL226838

$$$$
CHEMBL2364611
  MOE2019           2D

 28 32  0  0  0  0  0  0  0  0999 V2000
   13.2110    5.0030    0.0000 C   0  0  0  0  0  0  0  0  0  0  0  0
   12.0870    4.0100    0.0000 C   0  0  0  0  0  0  0  0  0  0  0  0
   12.3860    2.5400    0.0000 C   0  0  0  0  0  0  0  0  0  0  0  0
   11.2620    1.5460    0.0000 C   0  0  0  0  0  0  0  0  0  0  0  0
    9.8400    2.0220    0.0000 C   0  0  0  0  0  0  0  0  0  0  0  0
    9.5410    3.4920    0.0000 C   0  0  0  0  0  0  0  0  0  0  0  0
   10.6650    4.4860    0.0000 N   0  0  0  0  0  0  0  0  0  0  0  0
    8.1190    3.9690    0.0000 C   0  0  0  0  0  0  0  0  0  0  0  0
    7.6680    5.3990    0.0000 N   0  0  0  0  0  0  0  0  0  0  0  0
    6.1680    5.4130    0.0000 N   0  0  0  0  0  0  0  0  0  0  0  0
    4.9620    6.3050    0.0000 C   0  0  0  0  0  0  0  0  0  0  0  0
    3.7410    5.4340    0.0000 C   0  0  0  0  0  0  0  0  0  0  0  0
    4.1920    4.0040    0.0000 C   0  0  0  0  0  0  0  0  0  0  0  0
    5.6920    3.9900    0.0000 C   0  0  0  0  0  0  0  0  0  0  0  0
    6.8970    3.0980    0.0000 C   0  0  0  0  0  0  0  0  0  0  0  0
    6.8840    1.5980    0.0000 C   0  0  0  0  0  0  0  0  0  0  0  0
    8.1760    0.8360    0.0000 C   0  0  0  0  0  0  0  0  0  0  0  0
    8.1630   -0.6640    0.0000 C   0  0  0  0  0  0  0  0  0  0  0  0
    6.8570   -1.4020    0.0000 N   0  0  0  0  0  0  0  0  0  0  0  0
    5.5650   -0.6400    0.0000 C   0  0  0  0  0  0  0  0  0  0  0  0
    4.2590   -1.3790    0.0000 C   0  0  0  0  0  0  0  0  0  0  0  0
    2.9670   -0.6170    0.0000 C   0  0  0  0  0  0  0  0  0  0  0  0
    2.9800    0.8830    0.0000 C   0  0  0  0  0  0  0  0  0  0  0  0
    4.2860    1.6210    0.0000 C   0  0  0  0  0  0  0  0  0  0  0  0
    5.5780    0.8600    0.0000 C   0  0  0  0  0  0  0  0  0  0  0  0
    1.6880    1.6440    0.0000 C   0  0  0  0  0  0  0  0  0  0  0  0
    1.7010    3.1440    0.0000 O   0  0  0  0  0  0  0  0  0  0  0  0
    0.3820    0.9060    0.0000 N   0  0  0  0  0  0  0  0  0  0  0  0
  1  2  1  0  0  0  0
  2  3  1  0  0  0  0
  2  7  2  0  0  0  0
  3  4  2  0  0  0  0
  4  5  1  0  0  0  0
  5  6  2  0  0  0  0
  6  7  1  0  0  0  0
  6  8  1  0  0  0  0
  8  9  2  0  0  0  0
  8 15  1  0  0  0  0
  9 10  1  0  0  0  0
 10 11  1  0  0  0  0
 10 14  1  0  0  0  0
 11 12  1  0  0  0  0
 12 13  1  0  0  0  0
 13 14  1  0  0  0  0
 14 15  2  0  0  0  0
 15 16  1  0  0  0  0
 16 17  1  0  0  0  0
 16 25  2  0  0  0  0
 17 18  2  0  0  0  0
 18 19  1  0  0  0  0
 19 20  2  0  0  0  0
 20 21  1  0  0  0  0
 20 25  1  0  0  0  0
 21 22  2  0  0  0  0
 22 23  1  0  0  0  0
 23 24  2  0  0  0  0
 23 26  1  0  0  0  0
 24 25  1  0  0  0  0
 26 27  2  0  0  0  0
 26 28  1  0  0  0  0
M  END
>  <Compound name >
CHEMBL2364611

$$$$
CHEMBL238125
  MOE2019           2D

 25 28  0  0  0  0  0  0  0  0999 V2000
    5.7970    1.4770    0.0000 F   0  0  0  0  0  0  0  0  0  0  0  0
    5.7970    2.9770    0.0000 C   0  0  0  0  0  0  0  0  0  0  0  0
    7.0960    3.7270    0.0000 C   0  0  0  0  0  0  0  0  0  0  0  0
    7.0960    5.2270    0.0000 C   0  0  0  0  0  0  0  0  0  0  0  0
    5.7970    5.9770    0.0000 C   0  0  0  0  0  0  0  0  0  0  0  0
    5.7970    7.4770    0.0000 Cl  0  0  0  0  0  0  0  0  0  0  0  0
    4.4980    5.2270    0.0000 C   0  0  0  0  0  0  0  0  0  0  0  0
    4.4980    3.7270    0.0000 C   0  0  0  0  0  0  0  0  0  0  0  0
    3.1990    2.9770    0.0000 C   0  0  0  0  0  0  0  0  0  0  0  0
    1.9000    3.7270    0.0000 N   0  0  0  0  0  0  0  0  0  0  0  0
    0.6010    2.9770    0.0000 C   0  0  0  0  0  0  0  0  0  0  0  0
   -0.6980    3.7270    0.0000 N   0  0  0  0  0  0  0  0  0  0  0  0
   -0.6980    5.2270    0.0000 C   0  0  0  0  0  0  0  0  0  0  0  0
    0.6010    5.9770    0.0000 C   0  0  0  0  0  0  0  0  0  0  0  0
    0.6010    7.4770    0.0000 C   0  0  0  0  0  0  0  0  0  0  0  0
   -0.6980    8.2270    0.0000 N   0  0  0  0  0  0  0  0  0  0  0  0
   -1.9970    7.4770    0.0000 C   0  0  0  0  0  0  0  0  0  0  0  0
   -1.9970    5.9770    0.0000 C   0  0  0  0  0  0  0  0  0  0  0  0
    0.6010    1.4770    0.0000 C   0  0  0  0  0  0  0  0  0  0  0  0
   -0.6980    0.7270    0.0000 N   0  0  0  0  0  0  0  0  0  0  0  0
   -0.6980   -0.7730    0.0000 C   0  0  0  0  0  0  0  0  0  0  0  0
    0.6010   -1.5230    0.0000 C   0  0  0  0  0  0  0  0  0  0  0  0
    1.9000   -0.7730    0.0000 N   0  0  0  0  0  0  0  0  0  0  0  0
    1.9000    0.7270    0.0000 C   0  0  0  0  0  0  0  0  0  0  0  0
    3.1990    1.4770    0.0000 N   0  0  0  0  0  0  0  0  0  0  0  0
  1  2  1  0  0  0  0
  2  3  1  0  0  0  0
  2  8  2  0  0  0  0
  3  4  2  0  0  0  0
  4  5  1  0  0  0  0
  5  6  1  0  0  0  0
  5  7  2  0  0  0  0
  7  8  1  0  0  0  0
  8  9  1  0  0  0  0
  9 10  1  0  0  0  0
  9 25  2  0  0  0  0
 10 11  2  0  0  0  0
 11 12  1  0  0  0  0
 11 19  1  0  0  0  0
 12 13  1  0  0  0  0
 13 14  1  0  0  0  0
 13 18  2  0  0  0  0
 14 15  2  0  0  0  0
 15 16  1  0  0  0  0
 16 17  2  0  0  0  0
 17 18  1  0  0  0  0
 19 20  1  0  0  0  0
 19 24  2  0  0  0  0
 20 21  2  0  0  0  0
 21 22  1  0  0  0  0
 22 23  2  0  0  0  0
 23 24  1  0  0  0  0
 24 25  1  0  0  0  0
M  END
>  <Compound name >
CHEMBL238125

$$$$
CHEMBL261454
  MOE2019           2D

 21 24  0  0  0  0  0  0  0  0999 V2000
   -5.0040    3.0150    0.0000 C   0  0  0  0  0  0  0  0  0  0  0  0
   -5.4760    4.4390    0.0000 C   0  0  0  0  0  0  0  0  0  0  0  0
   -4.4790    5.5590    0.0000 C   0  0  0  0  0  0  0  0  0  0  0  0
   -3.0100    5.2560    0.0000 C   0  0  0  0  0  0  0  0  0  0  0  0
   -2.5380    3.8320    0.0000 N   0  0  0  0  0  0  0  0  0  0  0  0
   -3.5350    2.7120    0.0000 C   0  0  0  0  0  0  0  0  0  0  0  0
   -2.0130    6.3770    0.0000 C   0  0  0  0  0  0  0  0  0  0  0  0
   -2.3330    7.8420    0.0000 N   0  0  0  0  0  0  0  0  0  0  0  0
   -1.0390    8.6000    0.0000 N   0  0  0  0  0  0  0  0  0  0  0  0
    0.0820    7.6030    0.0000 C   0  0  0  0  0  0  0  0  0  0  0  0
   -0.5200    6.2290    0.0000 C   0  0  0  0  0  0  0  0  0  0  0  0
    0.2380    4.9340    0.0000 C   0  0  0  0  0  0  0  0  0  0  0  0
   -0.5040    3.6310    0.0000 C   0  0  0  0  0  0  0  0  0  0  0  0
    0.2530    2.3360    0.0000 C   0  0  0  0  0  0  0  0  0  0  0  0
    1.7530    2.3450    0.0000 N   0  0  0  0  0  0  0  0  0  0  0  0
    2.4960    3.6490    0.0000 C   0  0  0  0  0  0  0  0  0  0  0  0
    3.9950    3.6580    0.0000 C   0  0  0  0  0  0  0  0  0  0  0  0
    4.7380    4.9610    0.0000 C   0  0  0  0  0  0  0  0  0  0  0  0
    3.9800    6.2560    0.0000 C   0  0  0  0  0  0  0  0  0  0  0  0
    2.4800    6.2470    0.0000 C   0  0  0  0  0  0  0  0  0  0  0  0
    1.7380    4.9430    0.0000 C   0  0  0  0  0  0  0  0  0  0  0  0
  1  2  1  0  0  0  0
  1  6  2  0  0  0  0
  2  3  2  0  0  0  0
  3  4  1  0  0  0  0
  4  5  2  0  0  0  0
  4  7  1  0  0  0  0
  5  6  1  0  0  0  0
  7  8  2  0  0  0  0
  7 11  1  0  0  0  0
  8  9  1  0  0  0  0
  9 10  1  0  0  0  0
 10 11  2  0  0  0  0
 11 12  1  0  0  0  0
 12 13  1  0  0  0  0
 12 21  2  0  0  0  0
 13 14  2  0  0  0  0
 14 15  1  0  0  0  0
 15 16  2  0  0  0  0
 16 17  1  0  0  0  0
 16 21  1  0  0  0  0
 17 18  2  0  0  0  0
 18 19  1  0  0  0  0
 19 20  2  0  0  0  0
 20 21  1  0  0  0  0
M  END
>  <Compound name >
CHEMBL261454

$$$$
CHEMBL440084
  MOE2019           2D

 29 33  0  0  0  0  0  0  0  0999 V2000
   13.0360    6.0550    0.0000 N   0  0  0  0  0  0  0  0  0  0  0  0
   12.2800    7.3500    0.0000 C   0  0  0  0  0  0  0  0  0  0  0  0
   13.0240    8.6530    0.0000 O   0  0  0  0  0  0  0  0  0  0  0  0
   10.7800    7.3440    0.0000 C   0  0  0  0  0  0  0  0  0  0  0  0
   10.0240    8.6390    0.0000 C   0  0  0  0  0  0  0  0  0  0  0  0
    8.5240    8.6320    0.0000 C   0  0  0  0  0  0  0  0  0  0  0  0
    7.7800    7.3300    0.0000 C   0  0  0  0  0  0  0  0  0  0  0  0
    8.5360    6.0340    0.0000 C   0  0  0  0  0  0  0  0  0  0  0  0
   10.0360    6.0410    0.0000 C   0  0  0  0  0  0  0  0  0  0  0  0
    6.2800    7.3230    0.0000 C   0  0  0  0  0  0  0  0  0  0  0  0
    5.3930    8.5320    0.0000 N   0  0  0  0  0  0  0  0  0  0  0  0
    3.9680    8.0620    0.0000 C   0  0  0  0  0  0  0  0  0  0  0  0
    2.7510    8.9380    0.0000 C   0  0  0  0  0  0  0  0  0  0  0  0
    1.3830    8.3220    0.0000 C   0  0  0  0  0  0  0  0  0  0  0  0
    0.1660    9.1980    0.0000 C   0  0  0  0  0  0  0  0  0  0  0  0
    0.3160   10.6910    0.0000 C   0  0  0  0  0  0  0  0  0  0  0  0
    1.6830   11.3070    0.0000 C   0  0  0  0  0  0  0  0  0  0  0  0
    2.9010   10.4310    0.0000 N   0  0  0  0  0  0  0  0  0  0  0  0
    3.9750    6.5620    0.0000 C   0  0  0  0  0  0  0  0  0  0  0  0
    5.4040    6.1050    0.0000 N   0  0  0  0  0  0  0  0  0  0  0  0
    2.7660    5.6750    0.0000 C   0  0  0  0  0  0  0  0  0  0  0  0
    1.3930    6.2790    0.0000 C   0  0  0  0  0  0  0  0  0  0  0  0
    0.1830    5.3920    0.0000 C   0  0  0  0  0  0  0  0  0  0  0  0
    0.3470    3.9010    0.0000 C   0  0  0  0  0  0  0  0  0  0  0  0
   -0.6520    2.7810    0.0000 O   0  0  0  0  0  0  0  0  0  0  0  0
    0.1040    1.4860    0.0000 C   0  0  0  0  0  0  0  0  0  0  0  0
    1.5700    1.8040    0.0000 O   0  0  0  0  0  0  0  0  0  0  0  0
    1.7200    3.2970    0.0000 C   0  0  0  0  0  0  0  0  0  0  0  0
    2.9290    4.1840    0.0000 C   0  0  0  0  0  0  0  0  0  0  0  0
  1  2  1  0  0  0  0
  2  3  2  0  0  0  0
  2  4  1  0  0  0  0
  4  5  1  0  0  0  0
  4  9  2  0  0  0  0
  5  6  2  0  0  0  0
  6  7  1  0  0  0  0
  7  8  2  0  0  0  0
  7 10  1  0  0  0  0
  8  9  1  0  0  0  0
 10 11  2  0  0  0  0
 10 20  1  0  0  0  0
 11 12  1  0  0  0  0
 12 13  1  0  0  0  0
 12 19  2  0  0  0  0
 13 14  1  0  0  0  0
 13 18  2  0  0  0  0
 14 15  2  0  0  0  0
 15 16  1  0  0  0  0
 16 17  2  0  0  0  0
 17 18  1  0  0  0  0
 19 20  1  0  0  0  0
 19 21  1  0  0  0  0
 21 22  1  0  0  0  0
 21 29  2  0  0  0  0
 22 23  2  0  0  0  0
 23 24  1  0  0  0  0
 24 25  1  0  0  0  0
 24 28  2  0  0  0  0
 25 26  1  0  0  0  0
 26 27  1  0  0  0  0
 27 28  1  0  0  0  0
 28 29  1  0  0  0  0
M  END
>  <Compound name >
CHEMBL440084

$$$$
CHEMBL570533
  MOE2019           2D

 24 27  0  0  0  0  0  0  0  0999 V2000
   11.9970   -2.0900    0.0000 C   0  0  0  0  0  0  0  0  0  0  0  0
   10.6980   -2.8400    0.0000 C   0  0  0  0  0  0  0  0  0  0  0  0
   10.6980   -4.3400    0.0000 C   0  0  0  0  0  0  0  0  0  0  0  0
    9.3990   -5.0900    0.0000 C   0  0  0  0  0  0  0  0  0  0  0  0
    8.1000   -4.3400    0.0000 C   0  0  0  0  0  0  0  0  0  0  0  0
    8.1000   -2.8400    0.0000 C   0  0  0  0  0  0  0  0  0  0  0  0
    9.3990   -2.0900    0.0000 N   0  0  0  0  0  0  0  0  0  0  0  0
    6.8010   -2.0900    0.0000 C   0  0  0  0  0  0  0  0  0  0  0  0
    5.5020   -2.8400    0.0000 N   0  0  0  0  0  0  0  0  0  0  0  0
    4.2030   -2.0900    0.0000 C   0  0  0  0  0  0  0  0  0  0  0  0
    2.9040   -2.8400    0.0000 N   0  0  0  0  0  0  0  0  0  0  0  0
    2.9040   -4.3400    0.0000 C   0  0  0  0  0  0  0  0  0  0  0  0
    1.6050   -5.0900    0.0000 C   0  0  0  0  0  0  0  0  0  0  0  0
    1.6050   -6.5900    0.0000 C   0  0  0  0  0  0  0  0  0  0  0  0
    2.9040   -7.3400    0.0000 N   0  0  0  0  0  0  0  0  0  0  0  0
    4.2030   -6.5900    0.0000 C   0  0  0  0  0  0  0  0  0  0  0  0
    4.2030   -5.0900    0.0000 C   0  0  0  0  0  0  0  0  0  0  0  0
    4.2030   -0.5900    0.0000 C   0  0  0  0  0  0  0  0  0  0  0  0
    2.9040    0.1600    0.0000 C   0  0  0  0  0  0  0  0  0  0  0  0
    2.9040    1.6600    0.0000 C   0  0  0  0  0  0  0  0  0  0  0  0
    4.2030    2.4100    0.0000 C   0  0  0  0  0  0  0  0  0  0  0  0
    5.5020    1.6600    0.0000 C   0  0  0  0  0  0  0  0  0  0  0  0
    5.5020    0.1600    0.0000 C   0  0  0  0  0  0  0  0  0  0  0  0
    6.8010   -0.5900    0.0000 N   0  0  0  0  0  0  0  0  0  0  0  0
  1  2  1  0  0  0  0
  2  3  1  0  0  0  0
  2  7  2  0  0  0  0
  3  4  2  0  0  0  0
  4  5  1  0  0  0  0
  5  6  2  0  0  0  0
  6  7  1  0  0  0  0
  6  8  1  0  0  0  0
  8  9  1  0  0  0  0
  8 24  2  0  0  0  0
  9 10  2  0  0  0  0
 10 11  1  0  0  0  0
 10 18  1  0  0  0  0
 11 12  1  0  0  0  0
 12 13  1  0  0  0  0
 12 17  2  0  0  0  0
 13 14  2  0  0  0  0
 14 15  1  0  0  0  0
 15 16  2  0  0  0  0
 16 17  1  0  0  0  0
 18 19  1  0  0  0  0
 18 23  2  0  0  0  0
 19 20  2  0  0  0  0
 20 21  1  0  0  0  0
 21 22  2  0  0  0  0
 22 23  1  0  0  0  0
 23 24  1  0  0  0  0
M  END
>  <Compound name >
CHEMBL570533

$$$$
CHEMBL525240
  MOE2019           2D

 68 75  0  0  1  0  0  0  0  0999 V2000
   -4.3410    4.5800    0.0000 O   0  0  0  0  0  0  0  0  0  0  0  0
   -4.2640    3.0640    0.0000 C   0  0  1  0  0  0  0  0  0  0  0  0
   -2.9790    2.3580    0.0000 C   0  0  1  0  0  0  0  0  0  0  0  0
   -3.6280    3.7110    0.0000 C   0  0  2  0  0  0  0  0  0  0  0  0
   -5.1070    3.6880    0.0000 C   0  0  0  0  0  0  0  0  0  0  0  0
   -6.0310    4.8060    0.0000 C   0  0  0  0  0  0  0  0  0  0  0  0
   -5.5890    6.2500    0.0000 O   0  0  0  0  0  0  0  0  0  0  0  0
   -7.5480    4.5580    0.0000 O   0  0  0  0  0  0  0  0  0  0  0  0
   -3.0690    5.2160    0.0000 C   0  0  0  0  0  0  0  0  0  0  0  0
   -4.1570    6.2690    0.0000 O   0  0  0  0  0  0  0  0  0  0  0  0
   -1.6140    5.7620    0.0000 O   0  0  0  0  0  0  0  0  0  0  0  0
   -0.2640    4.9270    0.0000 C   0  0  2  0  0  0  0  0  0  0  0  0
    1.0680    5.6590    0.0000 C   0  0  1  0  0  0  0  0  0  0  0  0
    1.9390    6.8500    0.0000 C   0  0  0  0  0  0  0  0  0  0  0  0
    3.3420    7.4330    0.0000 O   0  0  0  0  0  0  0  0  0  0  0  0
    4.8120    7.0080    0.0000 C   0  0  0  0  0  0  0  0  0  0  0  0
    5.6510    8.2670    0.0000 O   0  0  0  0  0  0  0  0  0  0  0  0
    5.7490    5.8190    0.0000 C   0  0  0  0  0  0  0  0  0  0  0  0
    7.0280    6.5980    0.0000 C   0  0  0  0  0  0  0  0  0  0  0  0
    8.3480    5.8800    0.0000 C   0  0  0  0  0  0  0  0  0  0  0  0
    9.6230    6.6840    0.0000 O   0  0  0  0  0  0  0  0  0  0  0  0
    8.3970    4.3970    0.0000 C   0  0  0  0  0  0  0  0  0  0  0  0
    9.6950    3.6580    0.0000 O   0  0  0  0  0  0  0  0  0  0  0  0
    7.0960    3.5980    0.0000 C   0  0  0  0  0  0  0  0  0  0  0  0
    7.2160    2.1040    0.0000 O   0  0  0  0  0  0  0  0  0  0  0  0
    5.8040    4.2910    0.0000 C   0  0  0  0  0  0  0  0  0  0  0  0
    4.9650    3.0420    0.0000 C   0  0  0  0  0  0  0  0  0  0  0  0
    6.2340    2.2850    0.0000 C   0  0  0  0  0  0  0  0  0  0  0  0
    4.9450    1.5470    0.0000 O   0  0  0  0  0  0  0  0  0  0  0  0
    6.2260    0.7770    0.0000 C   0  0  0  0  0  0  0  0  0  0  0  0
    7.5090    0.0210    0.0000 O   0  0  0  0  0  0  0  0  0  0  0  0
    4.9100    0.0510    0.0000 C   0  0  0  0  0  0  0  0  0  0  0  0
    4.8910   -1.4510    0.0000 O   0  0  0  0  0  0  0  0  0  0  0  0
    3.6310    0.8210    0.0000 C   0  0  0  0  0  0  0  0  0  0  0  0
    3.6560    2.3430    0.0000 C   0  0  0  0  0  0  0  0  0  0  0  0
    2.2410    1.9610    0.0000 C   0  0  0  0  0  0  0  0  0  0  0  0
    2.3050    0.4310    0.0000 O   0  0  0  0  0  0  0  0  0  0  0  0
    0.7510    2.2360    0.0000 O   0  0  0  0  0  0  0  0  0  0  0  0
   -0.2980    3.3640    0.0000 C   0  0  2  0  0  0  0  0  0  0  0  0
    1.0030    2.6030    0.0000 C   0  0  1  0  0  0  0  0  0  0  0  0
    1.0900    0.9970    0.0000 O   0  0  0  0  0  0  0  0  0  0  0  0
   -0.1170    0.0160    0.0000 C   0  0  0  0  0  0  0  0  0  0  0  0
    0.3860   -1.4160    0.0000 O   0  0  0  0  0  0  0  0  0  0  0  0
   -1.6160    0.0260    0.0000 C   0  0  0  0  0  0  0  0  0  0  0  0
   -1.6610   -1.4730    0.0000 C   0  0  0  0  0  0  0  0  0  0  0  0
   -2.9650   -2.1910    0.0000 C   0  0  0  0  0  0  0  0  0  0  0  0
   -3.0050   -3.6950    0.0000 O   0  0  0  0  0  0  0  0  0  0  0  0
   -4.2540   -1.4190    0.0000 C   0  0  0  0  0  0  0  0  0  0  0  0
   -5.5650   -2.1460    0.0000 O   0  0  0  0  0  0  0  0  0  0  0  0
   -4.2190    0.0740    0.0000 C   0  0  0  0  0  0  0  0  0  0  0  0
   -5.5280    0.7940    0.0000 O   0  0  0  0  0  0  0  0  0  0  0  0
   -5.5660    2.2870    0.0000 C   0  0  0  0  0  0  0  0  0  0  0  0
   -6.8720    3.0120    0.0000 O   0  0  0  0  0  0  0  0  0  0  0  0
   -2.9160    0.8310    0.0000 C   0  0  0  0  0  0  0  0  0  0  0  0
    2.2600    3.3580    0.0000 C   0  0  2  0  0  0  0  0  0  0  0  0
    1.3170    4.5000    0.0000 O   0  0  0  0  0  0  0  0  0  0  0  0
    0.0900    5.1680    0.0000 C   0  0  0  0  0  0  0  0  0  0  0  0
   -1.2790    4.2920    0.0000 O   0  0  0  0  0  0  0  0  0  0  0  0
   -0.1950    6.6510    0.0000 C   0  0  0  0  0  0  0  0  0  0  0  0
    0.9020    7.6550    0.0000 C   0  0  0  0  0  0  0  0  0  0  0  0
    0.6010    9.1250    0.0000 C   0  0  0  0  0  0  0  0  0  0  0  0
    1.7200   10.1220    0.0000 O   0  0  0  0  0  0  0  0  0  0  0  0
   -0.8250    9.5940    0.0000 C   0  0  0  0  0  0  0  0  0  0  0  0
   -1.1350   11.0590    0.0000 O   0  0  0  0  0  0  0  0  0  0  0  0
   -1.9390    8.5880    0.0000 C   0  0  0  0  0  0  0  0  0  0  0  0
   -3.3670    9.0610    0.0000 O   0  0  0  0  0  0  0  0  0  0  0  0
   -1.6350    7.1250    0.0000 C   0  0  0  0  0  0  0  0  0  0  0  0
    2.3490    4.8290    0.0000 O   0  0  0  0  0  0  0  0  0  0  0  0
  2  1  1  1  0  0  0
  2  3  1  0  0  0  0
  2 52  1  0  0  0  0
  3  4  1  0  0  0  0
  3 54  1  1  0  0  0
  4  5  1  6  0  0  0
  4  9  1  0  0  0  0
  5  6  1  0  0  0  0
  6  7  2  0  0  0  0
  6  8  1  0  0  0  0
  9 10  2  0  0  0  0
  9 11  1  0  0  0  0
 12 11  1  6  0  0  0
 12 13  1  0  0  0  0
 12 39  1  0  0  0  0
 13 14  1  1  0  0  0
 13 68  1  0  0  0  0
 14 15  1  0  0  0  0
 15 16  1  0  0  0  0
 16 17  2  0  0  0  0
 16 18  1  0  0  0  0
 18 19  2  0  0  0  0
 18 26  1  0  0  0  0
 19 20  1  0  0  0  0
 20 21  1  0  0  0  0
 20 22  2  0  0  0  0
 22 23  1  0  0  0  0
 22 24  1  0  0  0  0
 24 25  1  0  0  0  0
 24 26  2  0  0  0  0
 26 27  1  0  0  0  0
 27 28  2  0  0  0  0
 27 35  1  0  0  0  0
 28 29  1  0  0  0  0
 28 30  1  0  0  0  0
 30 31  1  0  0  0  0
 30 32  2  0  0  0  0
 32 33  1  0  0  0  0
 32 34  1  0  0  0  0
 34 35  2  0  0  0  0
 35 36  1  0  0  0  0
 36 37  2  0  0  0  0
 36 38  1  0  0  0  0
 39 38  1  6  0  0  0
 39 40  1  0  0  0  0
 40 41  1  6  0  0  0
 40 55  1  0  0  0  0
 41 42  1  0  0  0  0
 42 43  2  0  0  0  0
 42 44  1  0  0  0  0
 44 45  2  0  0  0  0
 44 54  1  0  0  0  0
 45 46  1  0  0  0  0
 46 47  1  0  0  0  0
 46 48  2  0  0  0  0
 48 49  1  0  0  0  0
 48 50  1  0  0  0  0
 50 51  1  0  0  0  0
 50 54  2  0  0  0  0
 51 52  1  0  0  0  0
 52 53  2  0  0  0  0
 55 56  1  1  0  0  0
 55 68  1  0  0  0  0
 56 57  1  0  0  0  0
 57 58  2  0  0  0  0
 57 59  1  0  0  0  0
 59 60  2  0  0  0  0
 59 67  1  0  0  0  0
 60 61  1  0  0  0  0
 61 62  1  0  0  0  0
 61 63  2  0  0  0  0
 63 64  1  0  0  0  0
 63 65  1  0  0  0  0
 65 66  1  0  0  0  0
 65 67  2  0  0  0  0
M  END
>  <Compound name >
CHEMBL525240

$$$$
CHEMBL65
  MOE2019           2D

 26 30  0  0  1  0  0  0  0  0999 V2000
    0.8860   -4.8430    0.0000 C   0  0  0  0  0  0  0  0  0  0  0  0
    1.6070   -3.5280    0.0000 C   0  0  0  0  0  0  0  0  0  0  0  0
    0.8290   -2.2460    0.0000 C   0  0  1  0  0  0  0  0  0  0  0  0
    0.1190   -3.5670    0.0000 O   0  0  0  0  0  0  0  0  0  0  0  0
   -0.5010   -1.5530    0.0000 C   0  0  0  0  0  0  0  0  0  0  0  0
   -1.7660   -2.3590    0.0000 O   0  0  0  0  0  0  0  0  0  0  0  0
   -0.5670   -0.0550    0.0000 O   0  0  0  0  0  0  0  0  0  0  0  0
    0.6990    0.7510    0.0000 C   0  0  0  0  0  0  0  0  0  0  0  0
    2.0290    0.0590    0.0000 C   0  0  0  0  0  0  0  0  0  0  0  0
    2.0940   -1.4400    0.0000 C   0  0  0  0  0  0  0  0  0  0  0  0
    3.4250   -2.1330    0.0000 C   0  0  0  0  0  0  0  0  0  0  0  0
    4.6900   -1.3270    0.0000 C   0  0  0  0  0  0  0  0  0  0  0  0
    4.6250    0.1720    0.0000 N   0  0  0  0  0  0  0  0  0  0  0  0
    6.0300    0.6970    0.0000 C   0  0  0  0  0  0  0  0  0  0  0  0
    6.9630   -0.4770    0.0000 C   0  0  0  0  0  0  0  0  0  0  0  0
    8.4610   -0.5690    0.0000 C   0  0  0  0  0  0  0  0  0  0  0  0
    9.1300   -1.9110    0.0000 C   0  0  0  0  0  0  0  0  0  0  0  0
   10.6270   -2.0030    0.0000 C   0  0  0  0  0  0  0  0  0  0  0  0
   11.2960   -3.3450    0.0000 C   0  0  0  0  0  0  0  0  0  0  0  0
   10.4680   -4.5960    0.0000 C   0  0  0  0  0  0  0  0  0  0  0  0
    8.9710   -4.5040    0.0000 C   0  0  0  0  0  0  0  0  0  0  0  0
    8.3020   -3.1620    0.0000 C   0  0  0  0  0  0  0  0  0  0  0  0
    6.8050   -3.0700    0.0000 N   0  0  0  0  0  0  0  0  0  0  0  0
    6.1350   -1.7280    0.0000 C   0  0  0  0  0  0  0  0  0  0  0  0
    3.2940    0.8640    0.0000 C   0  0  0  0  0  0  0  0  0  0  0  0
    3.2290    2.3630    0.0000 O   0  0  0  0  0  0  0  0  0  0  0  0
  1  2  1  0  0  0  0
  3  2  1  1  0  0  0
  3  4  1  6  0  0  0
  3  5  1  0  0  0  0
  3 10  1  0  0  0  0
  5  6  2  0  0  0  0
  5  7  1  0  0  0  0
  7  8  1  0  0  0  0
  8  9  1  0  0  0  0
  9 10  2  0  0  0  0
  9 25  1  0  0  0  0
 10 11  1  0  0  0  0
 11 12  2  0  0  0  0
 12 13  1  0  0  0  0
 12 24  1  0  0  0  0
 13 14  1  0  0  0  0
 13 25  1  0  0  0  0
 14 15  1  0  0  0  0
 15 16  2  0  0  0  0
 15 24  1  0  0  0  0
 16 17  1  0  0  0  0
 17 18  1  0  0  0  0
 17 22  2  0  0  0  0
 18 19  2  0  0  0  0
 19 20  1  0  0  0  0
 20 21  2  0  0  0  0
 21 22  1  0  0  0  0
 22 23  1  0  0  0  0
 23 24  2  0  0  0  0
 25 26  2  0  0  0  0
M  END
>  <Compound name >
CHEMBL65

$$$$
CHEMBL3605057
  MOE2019           2D

 34 38  0  0  0  0  0  0  0  0999 V2000
    6.2630  -10.8470    0.0000 O   0  0  0  0  0  0  0  0  0  0  0  0
    7.0130   -9.5480    0.0000 C   0  0  0  0  0  0  0  0  0  0  0  0
    6.2630   -8.2490    0.0000 N   0  0  0  0  0  0  0  0  0  0  0  0
    4.7630   -8.2490    0.0000 C   0  0  0  0  0  0  0  0  0  0  0  0
    4.0130   -6.9500    0.0000 C   0  0  0  0  0  0  0  0  0  0  0  0
    2.5130   -6.9500    0.0000 C   0  0  0  0  0  0  0  0  0  0  0  0
    1.7630   -5.6510    0.0000 N   0  0  0  0  0  0  0  0  0  0  0  0
    0.2630   -5.6510    0.0000 C   0  0  0  0  0  0  0  0  0  0  0  0
   -0.4870   -6.9500    0.0000 N   0  0  0  0  0  0  0  0  0  0  0  0
   -1.9870   -6.9500    0.0000 C   0  0  0  0  0  0  0  0  0  0  0  0
   -2.7370   -8.2490    0.0000 N   0  0  0  0  0  0  0  0  0  0  0  0
   -4.2370   -8.2490    0.0000 C   0  0  0  0  0  0  0  0  0  0  0  0
   -4.9870   -6.9500    0.0000 C   0  0  0  0  0  0  0  0  0  0  0  0
   -6.4870   -6.9500    0.0000 C   0  0  0  0  0  0  0  0  0  0  0  0
   -7.2370   -8.2490    0.0000 C   0  0  0  0  0  0  0  0  0  0  0  0
   -6.4870   -9.5480    0.0000 C   0  0  0  0  0  0  0  0  0  0  0  0
   -7.2370  -10.8470    0.0000 C   0  0  0  0  0  0  0  0  0  0  0  0
   -8.7370  -10.8470    0.0000 N   0  0  0  0  0  0  0  0  0  0  0  0
   -9.4870   -9.5480    0.0000 C   0  0  0  0  0  0  0  0  0  0  0  0
  -10.9870   -9.5480    0.0000 C   0  0  0  0  0  0  0  0  0  0  0  0
  -11.7370  -10.8470    0.0000 O   0  0  0  0  0  0  0  0  0  0  0  0
  -10.9870  -12.1460    0.0000 C   0  0  0  0  0  0  0  0  0  0  0  0
   -9.4870  -12.1460    0.0000 C   0  0  0  0  0  0  0  0  0  0  0  0
   -4.9870   -9.5480    0.0000 C   0  0  0  0  0  0  0  0  0  0  0  0
   -2.7370   -5.6510    0.0000 N   0  0  0  0  0  0  0  0  0  0  0  0
   -1.9870   -4.3520    0.0000 C   0  0  0  0  0  0  0  0  0  0  0  0
   -0.4870   -4.3520    0.0000 C   0  0  0  0  0  0  0  0  0  0  0  0
    0.2630   -3.0530    0.0000 C   0  0  0  0  0  0  0  0  0  0  0  0
    1.5620   -2.3030    0.0000 C   0  0  0  0  0  0  0  0  0  0  0  0
    0.2630   -1.5530    0.0000 C   0  0  0  0  0  0  0  0  0  0  0  0
    8.5130   -9.5480    0.0000 C   0  0  0  0  0  0  0  0  0  0  0  0
    9.5730  -10.6090    0.0000 C   0  0  0  0  0  0  0  0  0  0  0  0
   10.6340   -9.5480    0.0000 C   0  0  0  0  0  0  0  0  0  0  0  0
    9.5730   -8.4870    0.0000 C   0  0  0  0  0  0  0  0  0  0  0  0
  1  2  2  0  0  0  0
  2  3  1  0  0  0  0
  2 31  1  0  0  0  0
  3  4  1  0  0  0  0
  4  5  1  0  0  0  0
  5  6  1  0  0  0  0
  6  7  1  0  0  0  0
  7  8  1  0  0  0  0
  8  9  1  0  0  0  0
  8 27  2  0  0  0  0
  9 10  2  0  0  0  0
 10 11  1  0  0  0  0
 10 25  1  0  0  0  0
 11 12  1  0  0  0  0
 12 13  1  0  0  0  0
 12 24  2  0  0  0  0
 13 14  2  0  0  0  0
 14 15  1  0  0  0  0
 15 16  2  0  0  0  0
 16 17  1  0  0  0  0
 16 24  1  0  0  0  0
 17 18  1  0  0  0  0
 18 19  1  0  0  0  0
 18 23  1  0  0  0  0
 19 20  1  0  0  0  0
 20 21  1  0  0  0  0
 21 22  1  0  0  0  0
 22 23  1  0  0  0  0
 25 26  2  0  0  0  0
 26 27  1  0  0  0  0
 27 28  1  0  0  0  0
 28 29  1  0  0  0  0
 28 30  1  0  0  0  0
 29 30  1  0  0  0  0
 31 32  1  0  0  0  0
 31 34  1  0  0  0  0
 32 33  1  0  0  0  0
 33 34  1  0  0  0  0
M  END
>  <Compound name >
CHEMBL3605057

$$$$
CHEMBL475251
  MOE2019           2D

 34 37  0  0  0  0  0  0  0  0999 V2000
    0.0000    0.0000    0.0000 C   0  0  0  0  0  0  0  0  0  0  0  0
    1.5000    0.0000    0.0000 O   0  0  0  0  0  0  0  0  0  0  0  0
    2.2500   -1.2990    0.0000 C   0  0  0  0  0  0  0  0  0  0  0  0
    3.7500   -1.2990    0.0000 C   0  0  0  0  0  0  0  0  0  0  0  0
    4.5000   -2.5980    0.0000 C   0  0  0  0  0  0  0  0  0  0  0  0
    6.0000   -2.5980    0.0000 N   0  0  0  0  0  0  0  0  0  0  0  0
    6.7500   -1.2990    0.0000 C   0  0  0  0  0  0  0  0  0  0  0  0
    6.0000    0.0000    0.0000 N   0  0  0  0  0  0  0  0  0  0  0  0
    6.7500    1.2990    0.0000 C   0  0  0  0  0  0  0  0  0  0  0  0
    8.2500    1.2990    0.0000 C   0  0  0  0  0  0  0  0  0  0  0  0
    9.0000    2.5980    0.0000 F   0  0  0  0  0  0  0  0  0  0  0  0
    9.0000    0.0000    0.0000 C   0  0  0  0  0  0  0  0  0  0  0  0
   10.5000    0.0000    0.0000 N   0  0  0  0  0  0  0  0  0  0  0  0
   11.2500   -1.2990    0.0000 C   0  0  0  0  0  0  0  0  0  0  0  0
   10.5000   -2.5980    0.0000 C   0  0  0  0  0  0  0  0  0  0  0  0
   11.2500   -3.8970    0.0000 C   0  0  0  0  0  0  0  0  0  0  0  0
   12.7500   -3.8970    0.0000 C   0  0  0  0  0  0  0  0  0  0  0  0
   13.5000   -5.1960    0.0000 O   0  0  0  0  0  0  0  0  0  0  0  0
   15.0000   -5.1960    0.0000 C   0  0  0  0  0  0  0  0  0  0  0  0
   16.2990   -5.9460    0.0000 C   0  0  0  0  0  0  0  0  0  0  0  0
   15.0000   -6.6960    0.0000 C   0  0  0  0  0  0  0  0  0  0  0  0
   15.7500   -3.8970    0.0000 C   0  0  0  0  0  0  0  0  0  0  0  0
   17.2500   -3.8970    0.0000 O   0  0  0  0  0  0  0  0  0  0  0  0
   15.0000   -2.5980    0.0000 N   0  0  0  0  0  0  0  0  0  0  0  0
   13.5000   -2.5980    0.0000 C   0  0  0  0  0  0  0  0  0  0  0  0
   12.7500   -1.2990    0.0000 N   0  0  0  0  0  0  0  0  0  0  0  0
    8.2500   -1.2990    0.0000 N   0  0  0  0  0  0  0  0  0  0  0  0
    3.7500   -3.8970    0.0000 C   0  0  0  0  0  0  0  0  0  0  0  0
    2.2500   -3.8970    0.0000 C   0  0  0  0  0  0  0  0  0  0  0  0
    1.5000   -5.1960    0.0000 O   0  0  0  0  0  0  0  0  0  0  0  0
    2.2500   -6.4950    0.0000 C   0  0  0  0  0  0  0  0  0  0  0  0
    1.5000   -2.5980    0.0000 C   0  0  0  0  0  0  0  0  0  0  0  0
    0.0000   -2.5980    0.0000 O   0  0  0  0  0  0  0  0  0  0  0  0
   -0.7500   -3.8970    0.0000 C   0  0  0  0  0  0  0  0  0  0  0  0
  1  2  1  0  0  0  0
  2  3  1  0  0  0  0
  3  4  1  0  0  0  0
  3 32  2  0  0  0  0
  4  5  2  0  0  0  0
  5  6  1  0  0  0  0
  5 28  1  0  0  0  0
  6  7  1  0  0  0  0
  7  8  1  0  0  0  0
  7 27  2  0  0  0  0
  8  9  2  0  0  0  0
  9 10  1  0  0  0  0
 10 11  1  0  0  0  0
 10 12  2  0  0  0  0
 12 13  1  0  0  0  0
 12 27  1  0  0  0  0
 13 14  1  0  0  0  0
 14 15  1  0  0  0  0
 14 26  2  0  0  0  0
 15 16  2  0  0  0  0
 16 17  1  0  0  0  0
 17 18  1  0  0  0  0
 17 25  2  0  0  0  0
 18 19  1  0  0  0  0
 19 20  1  0  0  0  0
 19 21  1  0  0  0  0
 19 22  1  0  0  0  0
 22 23  2  0  0  0  0
 22 24  1  0  0  0  0
 24 25  1  0  0  0  0
 25 26  1  0  0  0  0
 28 29  2  0  0  0  0
 29 30  1  0  0  0  0
 29 32  1  0  0  0  0
 30 31  1  0  0  0  0
 32 33  1  0  0  0  0
 33 34  1  0  0  0  0
M  END
>  <Compound name >
CHEMBL475251

$$$$
CHEMBL1076555
  MOE2019           2D

 20 22  0  0  0  0  0  0  0  0999 V2000
   -0.1770   -3.4940    0.0000 O   0  0  0  0  0  0  0  0  0  0  0  0
    1.1580   -2.8080    0.0000 C   0  0  0  0  0  0  0  0  0  0  0  0
    1.2310   -1.3100    0.0000 C   0  0  0  0  0  0  0  0  0  0  0  0
    2.5660   -0.6250    0.0000 C   0  0  0  0  0  0  0  0  0  0  0  0
    3.8260   -1.4380    0.0000 C   0  0  0  0  0  0  0  0  0  0  0  0
    5.1610   -0.7530    0.0000 N   0  0  0  0  0  0  0  0  0  0  0  0
    6.4210   -1.5660    0.0000 C   0  0  0  0  0  0  0  0  0  0  0  0
    7.8200   -1.0240    0.0000 N   0  0  0  0  0  0  0  0  0  0  0  0
    8.7680   -2.1860    0.0000 C   0  0  0  0  0  0  0  0  0  0  0  0
    7.9550   -3.4470    0.0000 C   0  0  0  0  0  0  0  0  0  0  0  0
    6.5050   -3.0630    0.0000 S   0  0  0  0  0  0  0  0  0  0  0  0
   10.2650   -2.1030    0.0000 C   0  0  0  0  0  0  0  0  0  0  0  0
   10.9420   -0.7640    0.0000 C   0  0  0  0  0  0  0  0  0  0  0  0
   12.4400   -0.6810    0.0000 C   0  0  0  0  0  0  0  0  0  0  0  0
   13.2610   -1.9370    0.0000 C   0  0  0  0  0  0  0  0  0  0  0  0
   14.7580   -1.8530    0.0000 Cl  0  0  0  0  0  0  0  0  0  0  0  0
   12.5840   -3.2750    0.0000 C   0  0  0  0  0  0  0  0  0  0  0  0
   11.0860   -3.3580    0.0000 C   0  0  0  0  0  0  0  0  0  0  0  0
    3.7530   -2.9360    0.0000 C   0  0  0  0  0  0  0  0  0  0  0  0
    2.4180   -3.6210    0.0000 C   0  0  0  0  0  0  0  0  0  0  0  0
  1  2  1  0  0  0  0
  2  3  1  0  0  0  0
  2 20  2  0  0  0  0
  3  4  2  0  0  0  0
  4  5  1  0  0  0  0
  5  6  1  0  0  0  0
  5 19  2  0  0  0  0
  6  7  1  0  0  0  0
  7  8  2  0  0  0  0
  7 11  1  0  0  0  0
  8  9  1  0  0  0  0
  9 10  2  0  0  0  0
  9 12  1  0  0  0  0
 10 11  1  0  0  0  0
 12 13  1  0  0  0  0
 12 18  2  0  0  0  0
 13 14  2  0  0  0  0
 14 15  1  0  0  0  0
 15 16  1  0  0  0  0
 15 17  2  0  0  0  0
 17 18  1  0  0  0  0
 19 20  1  0  0  0  0
M  END
>  <Compound name >
CHEMBL1076555

$$$$
