
  SciTegic04051205032D

 17 19  0  0  0  0            999 V2000
    7.0169    4.3896    0.0000 C   0  0
    7.4234    3.6781    0.0000 C   0  0
    8.2409    3.6753    0.0000 C   0  0
    8.6530    4.3833    0.0000 C   0  0
    8.2416    5.0956    0.0000 C   0  0
    7.4253    5.0948    0.0000 C   0  0
    4.9042    4.8039    0.0000 C   0  0
    4.9042    3.9747    0.0000 C   0  0
    5.6928    3.7185    0.0000 S   0  0
    5.6928    5.0601    0.0000 C   0  0
    3.4861    4.8085    0.0000 C   0  0
    3.4808    3.9853    0.0000 C   0  0
    4.1899    3.5709    0.0000 C   0  0
    4.1964    5.2156    0.0000 C   0  0
    6.1802    4.3893    0.0000 N   0  0
    5.9042    5.8626    0.0000 O   0  0
    7.0083    5.8127    0.0000 C   0  0
  4  5  1  0
  8  9  1  0
 10  7  1  0
  2  3  1  0
  5  6  2  0
 11 12  2  0
  6  1  1  0
 12 13  1  0
 13  8  2  0
  7  8  1  0
  7 14  2  0
 14 11  1  0
  1  2  2  0
 15  1  1  0
 10 15  1  0
 15  9  1  0
  3  4  2  0
 10 16  2  0
  6 17  1  0
M  END
> <COMPOUND_ID>
DNDI1014357

$$$$

  SciTegic04051205032D

 24 26  0  0  0  0            999 V2000
    2.7125    3.8274    0.0000 N   0  0
    3.3125    3.8274    0.0000 C   0  0
    3.4984    3.2558    0.0000 C   0  0
    2.5266    3.2558    0.0000 C   0  0
    3.6650    4.3129    0.0000 N   0  0
    4.0691    3.0706    0.0000 C   0  0
    4.1941    2.4837    0.0000 C   0  0
    4.5149    3.4722    0.0000 O   0  0
    1.9559    3.0706    0.0000 N   0  0
    1.5102    3.4722    0.0000 C   0  0
    1.6384    4.0584    0.0000 C   0  0
    1.1933    4.4599    0.0000 C   0  0
    0.6218    4.2748    0.0000 C   0  0
    0.4981    3.6845    0.0000 C   0  0
    0.9443    3.2856    0.0000 C   0  0
    3.7463    2.0853    0.0000 C   0  0
    3.8709    1.4990    0.0000 C   0  0
    4.4422    1.3133    0.0000 C   0  0
    4.8889    1.7185    0.0000 C   0  0
    4.7620    2.3033    0.0000 C   0  0
   -0.0719    3.4973    0.0000 O   0  0
   -0.5191    3.8974    0.0000 C   0  0
    3.0533    2.8597    0.0000 S   0  0
    5.2057    2.7072    0.0000 F   0  0
  2  5  1  0
 11 12  1  0
  1  2  1  0
 12 13  2  0
  3  6  1  0
 13 14  1  0
  2  3  2  0
 14 15  2  0
 15 10  1  0
  6  7  1  0
  7 16  2  0
  3 23  1  0
 16 17  1  0
  6  8  2  0
 17 18  2  0
 23  4  1  0
 18 19  1  0
  4  9  1  0
 19 20  2  0
 20  7  1  0
  4  1  2  0
 14 21  1  0
  9 10  1  0
 21 22  1  0
 10 11  2  0
 20 24  1  0
M  END
> <COMPOUND_ID>
DNDI1020807

$$$$

  SciTegic04051205032D

 18 20  0  0  0  0            999 V2000
    5.0000  -10.5611    0.0000 O   0  0
    5.7145  -10.1486    0.0000 C   0  0
    5.7145   -9.3236    0.0000 C   0  0
    6.4289   -8.9111    0.0000 N   0  0
    6.4289   -8.0861    0.0000 C   0  0
    5.7145   -7.6736    0.0000 C   0  0
    5.7145   -6.8486    0.0000 C   0  0
    6.4289   -6.4361    0.0000 C   0  0
    7.1434   -6.8486    0.0000 C   0  0
    7.1434   -7.6736    0.0000 C   0  0
    7.9280   -7.9285    0.0000 N   0  0
    8.4130   -7.2611    0.0000 C   0  0
    9.2334   -7.1748    0.0000 C   0  0
    9.5690   -6.4211    0.0000 C   0  0
    9.0841   -5.7537    0.0000 C   0  0
    9.4196   -5.0000    0.0000 Br  0  0
    8.2636   -5.8399    0.0000 C   0  0
    7.9280   -6.5936    0.0000 C   0  0
  1  2  1  0
  2  3  1  0
  3  4  1  0
  4  5  1  0
  5  6  1  0
  6  7  1  0
  7  8  1  0
  8  9  1  0
  9 10  2  0
  5 10  1  0
 10 11  1  0
 11 12  1  0
 12 13  2  0
 13 14  1  0
 14 15  2  0
 15 16  1  0
 15 17  1  0
 17 18  2  0
  9 18  1  0
 12 18  1  0
M  END
> <COMPOUND_ID>
DNDI1317250

$$$$

  SciTegic04051205032D

 15 16  0  0  0  0            999 V2000
    5.0000   -9.6449    0.0000 C   0  0
    5.8069   -9.4734    0.0000 C   0  0
    6.3590  -10.0865    0.0000 C   0  0
    7.1659   -9.9150    0.0000 C   0  0
    7.4209   -9.1303    0.0000 C   0  0
    8.2278   -8.9588    0.0000 O   0  0
    6.8688   -8.5172    0.0000 C   0  0
    6.0619   -8.6888    0.0000 C   0  0
    7.1238   -7.7326    0.0000 N   0  0
    6.5717   -7.1195    0.0000 N   0  0
    6.8267   -6.3349    0.0000 C   0  0
    7.6113   -6.0800    0.0000 N   0  0
    7.6113   -5.2550    0.0000 N   0  0
    6.8267   -5.0000    0.0000 C   0  0
    6.3418   -5.6675    0.0000 N   0  0
  1  2  1  0
  2  3  2  0
  3  4  1  0
  4  5  2  0
  5  6  1  0
  5  7  1  0
  7  8  2  0
  2  8  1  0
  7  9  1  0
  9 10  2  0
 10 11  1  0
 11 12  2  0
 12 13  1  0
 13 14  2  0
 14 15  1  0
 11 15  1  0
M  END
> <COMPOUND_ID>
DNDI1317312

$$$$

  SciTegic04051205032D

 18 19  0  0  0  0            999 V2000
    6.8081   -8.5531    0.0000 C   0  0
    7.0630   -7.7685    0.0000 O   0  0
    7.8700   -7.5970    0.0000 C   0  0
    8.4220   -8.2101    0.0000 O   0  0
    8.1249   -6.8123    0.0000 C   0  0
    8.9096   -6.5574    0.0000 C   0  0
    9.5770   -7.0423    0.0000 O   0  0
   10.3307   -6.7068    0.0000 C   0  0
    8.9096   -5.7324    0.0000 C   0  0
    9.5770   -5.2475    0.0000 O   0  0
    8.1249   -5.4775    0.0000 O   0  0
    7.6400   -6.1449    0.0000 C   0  0
    7.2275   -5.4304    0.0000 C   0  0
    6.4025   -5.4304    0.0000 C   0  0
    5.9900   -6.1449    0.0000 C   0  0
    5.1650   -6.1449    0.0000 O   0  0
    6.4025   -6.8594    0.0000 C   0  0
    7.2275   -6.8594    0.0000 C   0  0
  1  2  1  0
  2  3  1  0
  3  4  2  0
  3  5  1  0
  5  6  2  0
  6  7  1  0
  7  8  1  0
  6  9  1  0
  9 10  2  0
  9 11  1  0
 11 12  1  0
  5 12  1  0
 12 13  1  0
 13 14  2  0
 14 15  1  0
 15 16  2  0
 15 17  1  0
 17 18  2  0
 12 18  1  0
M  END
> <COMPOUND_ID>
DNDI1317340

$$$$

  SciTegic04051205032D

 24 27  0  0  0  0            999 V2000
    8.5235  -10.5926    0.0000 Cl  0  0
    8.9360   -9.8781    0.0000 C   0  0
    9.7610   -9.8781    0.0000 C   0  0
   10.1735   -9.1636    0.0000 C   0  0
    9.7610   -8.4492    0.0000 C   0  0
   10.1735   -7.7347    0.0000 N   0  0
    9.7610   -7.0202    0.0000 C   0  0
    8.9360   -7.0202    0.0000 O   0  0
   10.1735   -6.3057    0.0000 C   0  0
   10.9940   -6.2195    0.0000 C   0  0
   11.1655   -5.4125    0.0000 C   0  0
   10.4510   -5.0000    0.0000 C   0  0
    9.8379   -5.5521    0.0000 O   0  0
    8.9360   -8.4492    0.0000 C   0  0
    8.5235   -9.1636    0.0000 C   0  0
    7.6985   -9.1636    0.0000 C   0  0
    7.2136   -8.4962    0.0000 N   0  0
    6.4289   -8.7511    0.0000 C   0  0
    5.7145   -8.3386    0.0000 N   0  0
    5.0000   -8.7511    0.0000 C   0  0
    5.0000   -9.5761    0.0000 C   0  0
    5.7145   -9.9886    0.0000 C   0  0
    6.4289   -9.5761    0.0000 C   0  0
    7.2136   -9.8311    0.0000 O   0  0
  1  2  1  0
  2  3  2  0
  3  4  1  0
  4  5  2  0
  5  6  1  0
  6  7  1  0
  7  8  2  0
  7  9  1  0
  9 10  2  0
 10 11  1  0
 11 12  2  0
 12 13  1  0
  9 13  1  0
  5 14  1  0
 14 15  2  0
  2 15  1  0
 15 16  1  0
 16 17  2  0
 17 18  1  0
 18 19  2  0
 19 20  1  0
 20 21  2  0
 21 22  1  0
 22 23  2  0
 18 23  1  0
 23 24  1  0
 16 24  1  0
M  END
> <COMPOUND_ID>
DNDI1317463

$$$$

  SciTegic04051205032D

 22 23  0  0  0  0            999 V2000
   10.7157   -9.1250    0.0000 C   0  0
   11.4302   -8.7125    0.0000 C   0  0
   12.1447   -9.1250    0.0000 C   0  0
   11.4302   -7.8875    0.0000 C   0  0
   10.7157   -7.4750    0.0000 C   0  0
   10.7157   -6.6500    0.0000 N   0  3
   11.4302   -6.2375    0.0000 C   0  0
   11.4302   -5.4125    0.0000 C   0  0
   10.7157   -5.0000    0.0000 C   0  0
   10.0013   -5.4125    0.0000 C   0  0
   10.0013   -6.2375    0.0000 C   0  0
    9.2868   -6.6500    0.0000 C   0  0
    8.5723   -6.2374    0.0000 C   0  0
    7.8578   -6.6499    0.0000 C   0  0
    7.1434   -6.2374    0.0000 C   0  0
    6.4289   -6.6499    0.0000 C   0  0
    6.4289   -7.4749    0.0000 C   0  0
    7.1434   -7.8874    0.0000 C   0  0
    7.8578   -7.4750    0.0000 C   0  0
    5.7144   -7.8874    0.0000 N   0  0
    5.7144   -8.7124    0.0000 C   0  0
    5.0000   -7.4749    0.0000 C   0  0
  1  2  1  0
  2  3  1  0
  2  4  1  0
  4  5  1  0
  5  6  1  0
  6  7  2  0
  7  8  1  0
  8  9  2  0
  9 10  1  0
 10 11  2  0
  6 11  1  0
 11 12  1  0
 12 13  2  0
 13 14  1  0
 14 15  2  0
 15 16  1  0
 16 17  2  0
 17 18  1  0
 18 19  2  0
 14 19  1  0
 17 20  1  0
 20 21  1  0
 20 22  1  0
M  CHG  1   6   1
M  END
> <COMPOUND_ID>
DNDI1317476

$$$$

  SciTegic04051205032D

 18 20  0  0  0  0            999 V2000
    5.2299   -8.6549    0.0000 N   0  0
    5.4849   -7.8703    0.0000 C   0  0
    6.2695   -7.6154    0.0000 N   0  0
    6.2695   -6.7904    0.0000 C   0  0
    5.4849   -6.5354    0.0000 C   0  0
    5.0000   -7.2029    0.0000 S   0  0
    6.9369   -6.3054    0.0000 C   0  0
    7.6906   -6.6410    0.0000 C   0  0
    8.3581   -6.1561    0.0000 C   0  0
    8.2718   -5.3356    0.0000 C   0  0
    7.5181   -5.0000    0.0000 C   0  0
    6.8507   -5.4850    0.0000 N   0  0
    5.7820   -9.2680    0.0000 C   0  0
    5.5270  -10.0526    0.0000 C   0  0
    6.0791  -10.6657    0.0000 C   0  0
    6.8860  -10.4942    0.0000 C   0  0
    7.1410   -9.7096    0.0000 C   0  0
    6.5889   -9.0965    0.0000 N   0  0
  1  2  1  0
  2  3  2  0
  3  4  1  0
  4  5  2  0
  5  6  1  0
  2  6  1  0
  4  7  1  0
  7  8  2  0
  8  9  1  0
  9 10  2  0
 10 11  1  0
 11 12  2  0
  7 12  1  0
  1 13  1  0
 13 14  2  0
 14 15  1  0
 15 16  2  0
 16 17  1  0
 17 18  2  0
 13 18  1  0
M  END
> <COMPOUND_ID>
DNDI1317482

$$$$

  SciTegic04051205032D

 25 28  0  0  0  0            999 V2000
   10.8652   -9.2296    0.0000 C   0  0
   10.1750   -8.7870    0.0000 C   0  0
   10.1777   -7.9692    0.0000 C   0  0
    9.4736   -7.5578    0.0000 C   0  0
    8.7612   -7.9645    0.0000 C   0  0
    8.0589   -7.5531    0.0000 N   0  0
    7.3448   -7.9547    0.0000 C   0  0
    6.6773   -7.4557    0.0000 S   0  0
    6.6609   -6.5981    0.0000 C   0  0
    7.1394   -5.9193    0.0000 C   0  0
    6.7203   -5.1127    0.0000 C   0  0
    7.5403   -5.1932    0.0000 O   0  0
    5.7814   -5.0000    0.0000 C   0  0
    5.0000   -5.4122    0.0000 O   0  0
    5.1656   -6.2198    0.0000 C   0  0
    5.9338   -6.2841    0.0000 C   0  0
    6.2290   -5.3848    0.0000 O   0  0
    7.3436   -8.7736    0.0000 N   0  0
    8.0485   -9.1865    0.0000 C   0  0
    8.7612   -8.7806    0.0000 C   0  0
    9.4647   -9.1907    0.0000 C   0  0
    7.9971  -10.0061    0.0000 C   0  0
    8.8136  -10.0815    0.0000 F   0  0
    7.1766  -10.0047    0.0000 F   0  0
    7.9968  -10.8265    0.0000 F   0  0
  1  2  1  0
  2  3  1  0
  3  4  1  0
  4  5  1  0
  5  6  2  0
  6  7  1  0
  7  8  1  0
  8  9  1  0
  9 10  1  0
 10 11  1  0
 11 12  2  0
 11 13  1  0
 13 14  1  0
 14 15  1  0
 15 16  1  0
  9 16  1  0
 16 17  1  0
 13 17  1  0
  7 18  2  0
 18 19  1  0
 19 20  2  0
  5 20  1  0
 20 21  1  0
  2 21  1  0
 19 22  1  0
 22 23  1  0
 22 24  1  0
 22 25  1  0
M  END
> <COMPOUND_ID>
DNDI1317485

$$$$

  SciTegic04051205032D

 21 23  0  0  0  0            999 V2000
   12.1447   -6.2375    0.0000 O   0  0
   11.4303   -5.8250    0.0000 C   0  0
   10.7158   -6.2375    0.0000 C   0  0
   10.0013   -5.8250    0.0000 N   0  0
    9.2869   -6.2375    0.0000 C   0  0
    8.5724   -5.8250    0.0000 C   0  0
    7.8579   -6.2375    0.0000 N   0  0
    7.1434   -5.8250    0.0000 C   0  0
    7.1434   -5.0000    0.0000 O   0  0
    6.4290   -6.2375    0.0000 C   0  0
    5.7145   -5.8250    0.0000 C   0  0
    5.0000   -6.2375    0.0000 C   0  0
    5.0000   -7.0625    0.0000 C   0  0
    5.7145   -7.4750    0.0000 C   0  0
    5.7145   -8.3000    0.0000 C   0  0
    6.4290   -8.7125    0.0000 C   0  0
    7.1434   -8.3000    0.0000 C   0  0
    7.1434   -7.4750    0.0000 C   0  0
    7.8579   -7.0625    0.0000 C   0  0
    8.5724   -7.4750    0.0000 O   0  0
    6.4290   -7.0625    0.0000 C   0  0
  1  2  1  0
  2  3  1  0
  3  4  1  0
  4  5  1  0
  5  6  1  0
  6  7  1  0
  7  8  1  0
  8  9  2  0
  8 10  1  0
 10 11  2  0
 11 12  1  0
 12 13  2  0
 13 14  1  0
 14 15  2  0
 15 16  1  0
 16 17  2  0
 17 18  1  0
 18 19  1  0
  7 19  1  0
 19 20  2  0
 18 21  2  0
 10 21  1  0
 14 21  1  0
M  END
> <COMPOUND_ID>
DNDI1317637

$$$$

  SciTegic04051205032D

 22 22  0  0  0  0            999 V2000
    7.1434  -14.9000    0.0000 C   0  0
    7.1434  -14.0750    0.0000 C   0  0
    6.4289  -13.6625    0.0000 C   0  0
    6.4289  -12.8375    0.0000 C   0  0
    5.7145  -12.4250    0.0000 O   0  0
    5.7145  -11.6000    0.0000 C   0  0
    6.4289  -11.1875    0.0000 C   0  0
    6.4289  -10.3625    0.0000 C   0  0
    5.7145   -9.9500    0.0000 C   0  0
    5.0000  -10.3625    0.0000 C   0  0
    5.0000  -11.1875    0.0000 C   0  0
    5.7145   -9.1250    0.0000 C   0  0
    5.0000   -8.7125    0.0000 O   0  0
    6.4289   -8.7125    0.0000 N   0  0
    6.4289   -7.8875    0.0000 N   0  0
    7.1434   -7.4750    0.0000 C   0  0
    7.8579   -7.8875    0.0000 S   0  0
    7.1434   -6.6500    0.0000 N   0  0
    7.8579   -6.2375    0.0000 C   0  0
    8.5724   -6.6500    0.0000 O   0  0
    7.8579   -5.4125    0.0000 C   0  0
    8.5724   -5.0000    0.0000 C   0  0
  1  2  1  0
  2  3  1  0
  3  4  1  0
  4  5  1  0
  5  6  1  0
  6  7  2  0
  7  8  1  0
  8  9  2  0
  9 10  1  0
 10 11  2  0
  6 11  1  0
  9 12  1  0
 12 13  2  0
 12 14  1  0
 14 15  1  0
 15 16  1  0
 16 17  2  0
 16 18  1  0
 18 19  1  0
 19 20  2  0
 19 21  1  0
 21 22  1  0
M  END
> <COMPOUND_ID>
DNDI1317721

$$$$

  SciTegic04051205032D

 23 25  0  0  0  0            999 V2000
    8.0229   -8.7125    0.0000 C   0  0
    8.0229   -7.8875    0.0000 N   0  0
    8.7374   -7.4750    0.0000 N   0  0
    8.7374   -6.6500    0.0000 C   0  0
    8.0229   -6.2375    0.0000 N   0  0
    7.3084   -6.6500    0.0000 C   0  0
    6.5940   -6.2375    0.0000 C   0  0
    6.5940   -5.4125    0.0000 O   0  0
    5.8795   -6.6500    0.0000 N   0  0
    5.1650   -6.2375    0.0000 C   0  0
    5.8795   -7.4750    0.0000 C   0  0
    5.1650   -7.8875    0.0000 O   0  0
    6.5940   -7.8875    0.0000 N   0  0
    7.3084   -7.4750    0.0000 C   0  0
    9.4519   -6.2375    0.0000 C   0  0
    9.4519   -5.4125    0.0000 C   0  0
   10.1663   -6.6500    0.0000 C   0  0
   10.8808   -6.2375    0.0000 C   0  0
   11.5953   -6.6500    0.0000 C   0  0
   12.3097   -6.2375    0.0000 C   0  0
   12.3097   -5.4125    0.0000 C   0  0
   11.5953   -5.0000    0.0000 C   0  0
   10.8808   -5.4125    0.0000 C   0  0
  1  2  1  0
  2  3  1  0
  3  4  2  0
  4  5  1  0
  5  6  2  0
  6  7  1  0
  7  8  2  0
  7  9  1  0
  9 10  1  0
  9 11  1  0
 11 12  2  0
 11 13  1  0
 13 14  2  0
  2 14  1  0
  6 14  1  0
  4 15  1  0
 15 16  1  0
 15 17  2  0
 17 18  1  0
 18 19  2  0
 19 20  1  0
 20 21  2  0
 21 22  1  0
 22 23  2  0
 18 23  1  0
M  END
> <COMPOUND_ID>
DNDI1317744

$$$$

  SciTegic04051205032D

 25 28  0  0  0  0            999 V2000
    5.7145   -9.3949    0.0000 C   0  0
    5.7145   -8.5699    0.0000 N   0  0
    5.0000   -8.1574    0.0000 C   0  0
    6.4289   -8.1574    0.0000 C   0  0
    7.1434   -8.5699    0.0000 C   0  0
    7.8579   -8.1574    0.0000 O   0  0
    8.5723   -8.5699    0.0000 C   0  0
    8.5723   -9.3949    0.0000 C   0  0
    9.2868   -9.8074    0.0000 C   0  0
   10.0013   -9.3949    0.0000 C   0  0
   10.0013   -8.5699    0.0000 C   0  0
    9.2868   -8.1574    0.0000 C   0  0
    9.2868   -7.3324    0.0000 C   0  0
    8.5723   -6.9199    0.0000 N   0  0
    8.5723   -6.0949    0.0000 C   0  0
    9.2868   -5.6824    0.0000 C   0  0
   10.0013   -6.0949    0.0000 C   0  0
   10.0013   -6.9199    0.0000 C   0  0
   10.7859   -7.1748    0.0000 N   0  0
   11.2708   -6.5074    0.0000 C   0  0
   12.0913   -6.4211    0.0000 C   0  0
   12.4269   -5.6675    0.0000 C   0  0
   11.9419   -5.0000    0.0000 C   0  0
   11.1215   -5.0863    0.0000 C   0  0
   10.7859   -5.8399    0.0000 C   0  0
  1  2  1  0
  2  3  1  0
  2  4  1  0
  4  5  1  0
  5  6  1  0
  6  7  1  0
  7  8  2  0
  8  9  1  0
  9 10  2  0
 10 11  1  0
 11 12  2  0
  7 12  1  0
 12 13  1  0
 13 14  1  0
 14 15  1  0
 15 16  1  0
 16 17  1  0
 17 18  2  0
 13 18  1  0
 18 19  1  0
 19 20  1  0
 20 21  2  0
 21 22  1  0
 22 23  2  0
 23 24  1  0
 24 25  2  0
 17 25  1  0
 20 25  1  0
M  END
> <COMPOUND_ID>
DNDI1317835

$$$$

  SciTegic04051205032D

 27 30  0  0  0  0            999 V2000
    8.5780   -7.5559    0.0000 C   0  0
    9.2924   -7.1434    0.0000 C   0  0
   10.1174   -7.1434    0.0000 N   0  3
   10.5299   -7.8579    0.0000 C   0  0
   11.3549   -7.8579    0.0000 C   0  0
   11.7674   -7.1434    0.0000 C   0  0
   11.3549   -6.4290    0.0000 C   0  0
   11.7674   -5.7145    0.0000 C   0  0
   11.3549   -5.0000    0.0000 C   0  0
   10.5299   -5.0000    0.0000 C   0  0
   10.1174   -5.7145    0.0000 C   0  0
   10.5299   -6.4290    0.0000 C   0  0
   10.1174   -8.5724    0.0000 C   0  0
    9.2924   -8.5724    0.0000 C   0  0
    8.8075   -7.9050    0.0000 S   0  0
    8.0229   -8.1599    0.0000 C   0  0
    7.3084   -7.7474    0.0000 C   0  0
    6.5940   -8.1599    0.0000 C   0  0
    5.8795   -7.7474    0.0000 N   0  0
    5.8795   -6.9224    0.0000 C   0  0
    6.5940   -6.5099    0.0000 C   0  0
    5.1650   -6.5099    0.0000 O   0  0
    6.5940   -8.9849    0.0000 C   0  0
    7.3084   -9.3974    0.0000 C   0  0
    8.0229   -8.9849    0.0000 C   0  0
    8.8075   -9.2398    0.0000 N   0  0
    9.0625  -10.0245    0.0000 C   0  0
  1  2  1  0
  2  3  1  0
  3  4  2  0
  4  5  1  0
  5  6  2  0
  6  7  1  0
  7  8  2  0
  8  9  1  0
  9 10  2  0
 10 11  1  0
 11 12  2  0
  3 12  1  0
  7 12  1  0
  4 13  1  0
 13 14  2  0
 14 15  1  0
 15 16  1  0
 16 17  2  0
 17 18  1  0
 18 19  1  0
 19 20  1  0
 20 21  1  0
 20 22  2  0
 18 23  2  0
 23 24  1  0
 24 25  2  0
 16 25  1  0
 25 26  1  0
 14 26  1  0
 26 27  1  0
M  CHG  1   3   1
M  END
> <COMPOUND_ID>
DNDI1317846

$$$$

  SciTegic04051205032D

 17 18  0  0  0  0            999 V2000
    9.5420   -7.6605    0.0000 C   0  0
    8.9900   -8.2736    0.0000 C   0  0
    9.2449   -9.0582    0.0000 N   0  0
    8.1830   -8.1020    0.0000 C   0  0
    7.9280   -7.3174    0.0000 C   0  0
    8.4130   -6.6500    0.0000 C   0  0
    7.9280   -5.9825    0.0000 N   0  0
    7.1434   -6.2375    0.0000 C   0  0
    6.4290   -5.8250    0.0000 C   0  0
    6.4290   -5.0000    0.0000 C   0  0
    5.7145   -6.2375    0.0000 C   0  0
    5.0000   -5.8250    0.0000 C   0  0
    5.7145   -7.0625    0.0000 C   0  0
    5.0000   -7.4750    0.0000 C   0  0
    6.4290   -7.4750    0.0000 C   0  0
    6.4290   -8.3000    0.0000 C   0  0
    7.1434   -7.0625    0.0000 C   0  0
  1  2  1  0
  2  3  1  0
  2  4  1  0
  4  5  1  0
  5  6  2  0
  6  7  1  0
  7  8  1  0
  8  9  2  0
  9 10  1  0
  9 11  1  0
 11 12  1  0
 11 13  2  0
 13 14  1  0
 13 15  1  0
 15 16  1  0
 15 17  2  0
  5 17  1  0
  8 17  1  0
M  END
> <COMPOUND_ID>
DNDI1317976

$$$$

  SciTegic04051205032D

 24 27  0  0  0  0            999 V2000
   11.3768   -5.9268    0.0000 C   0  0
   10.5518   -5.9268    0.0000 C   0  0
   10.1393   -5.2124    0.0000 C   0  0
    9.3143   -5.2124    0.0000 C   0  0
    8.9018   -5.9268    0.0000 C   0  0
    9.3143   -6.6413    0.0000 C   0  0
   10.1393   -6.6413    0.0000 C   0  0
    8.0768   -5.9268    0.0000 C   0  0
    7.5919   -5.2594    0.0000 C   0  0
    6.8073   -5.5143    0.0000 N   0  0
    6.1622   -5.0000    0.0000 C   0  0
    5.3579   -5.1835    0.0000 C   0  0
    5.0000   -5.9268    0.0000 C   0  0
    5.3579   -6.6701    0.0000 C   0  0
    6.1622   -6.8537    0.0000 C   0  0
    6.8073   -6.3393    0.0000 C   0  0
    7.5919   -6.5943    0.0000 N   0  3
    7.8468   -7.3789    0.0000 C   0  0
    7.2948   -7.9920    0.0000 C   0  0
    7.5497   -8.7766    0.0000 C   0  0
    8.3567   -8.9482    0.0000 C   0  0
    8.6116   -9.7328    0.0000 C   0  0
    8.9087   -8.3351    0.0000 C   0  0
    8.6538   -7.5504    0.0000 C   0  0
  1  2  1  0
  2  3  2  0
  3  4  1  0
  4  5  2  0
  5  6  1  0
  6  7  2  0
  2  7  1  0
  5  8  1  0
  8  9  2  0
  9 10  1  0
 10 11  1  0
 11 12  1  0
 12 13  1  0
 13 14  1  0
 14 15  1  0
 15 16  1  0
 10 16  1  0
 16 17  2  0
  8 17  1  0
 17 18  1  0
 18 19  2  0
 19 20  1  0
 20 21  2  0
 21 22  1  0
 21 23  1  0
 23 24  2  0
 18 24  1  0
M  CHG  1  17   1
M  END
> <COMPOUND_ID>
DNDI1318029

$$$$

  SciTegic04051205032D

 23 25  0  0  0  0            999 V2000
   11.4303   -9.9500    0.0000 C   0  0
   11.4303   -9.1250    0.0000 N   0  0
   12.1448   -8.7125    0.0000 C   0  0
   10.7158   -8.7125    0.0000 C   0  0
   10.7158   -7.8875    0.0000 C   0  0
   10.0013   -7.4750    0.0000 C   0  0
    9.2869   -7.8875    0.0000 C   0  0
    9.2869   -8.7125    0.0000 C   0  0
   10.0013   -9.1250    0.0000 C   0  0
    8.5724   -7.4750    0.0000 C   0  0
    8.5724   -6.6500    0.0000 C   0  0
    7.8579   -6.2375    0.0000 C   0  0
    7.8579   -5.4125    0.0000 C   0  0
    7.1435   -5.0000    0.0000 C   0  0
    6.4290   -5.4125    0.0000 C   0  0
    5.7145   -5.0000    0.0000 C   0  0
    5.0000   -5.4125    0.0000 C   0  0
    5.0000   -6.2375    0.0000 C   0  0
    5.7145   -6.6500    0.0000 C   0  0
    5.7145   -7.4750    0.0000 C   0  0
    6.4290   -6.2375    0.0000 C   0  0
    7.1435   -6.6500    0.0000 N   0  3
    7.1435   -7.4750    0.0000 C   0  0
  1  2  1  0
  2  3  1  0
  2  4  1  0
  4  5  2  0
  5  6  1  0
  6  7  2  0
  7  8  1  0
  8  9  2  0
  4  9  1  0
  7 10  1  0
 10 11  2  0
 11 12  1  0
 12 13  2  0
 13 14  1  0
 14 15  2  0
 15 16  1  0
 16 17  2  0
 17 18  1  0
 18 19  2  0
 19 20  1  0
 19 21  1  0
 15 21  1  0
 21 22  2  0
 12 22  1  0
 22 23  1  0
M  CHG  1  22   1
M  END
> <COMPOUND_ID>
DNDI1318058

$$$$

  SciTegic04051205032D

 23 26  0  0  0  0            999 V2000
    5.3300  -10.1975    0.0000 Cl  0  0
    6.0444   -9.7850    0.0000 C   0  0
    6.7589  -10.1975    0.0000 C   0  0
    7.4734   -9.7850    0.0000 C   0  0
    7.4734   -8.9600    0.0000 C   0  0
    8.1878   -8.5475    0.0000 C   0  0
    8.1878   -7.7225    0.0000 N   0  0
    7.4734   -7.3100    0.0000 C   0  0
    7.4734   -6.4850    0.0000 C   0  0
    6.7589   -6.0725    0.0000 C   0  0
    6.0444   -6.4850    0.0000 C   0  0
    6.0444   -7.3100    0.0000 C   0  0
    6.7589   -7.7225    0.0000 C   0  0
    8.1878   -6.0725    0.0000 C   0  0
    8.1878   -5.2475    0.0000 N   0  0
    8.9023   -6.4850    0.0000 C   0  0
    8.9023   -7.3100    0.0000 C   0  0
    9.6869   -7.5649    0.0000 C   0  0
   10.1719   -6.8975    0.0000 C   0  0
    9.6869   -6.2301    0.0000 C   0  0
    6.7589   -8.5475    0.0000 C   0  0
    7.1714   -7.8330    0.0000 Cl  0  0
    6.0444   -8.9600    0.0000 C   0  0
  1  2  1  0
  2  3  2  0
  3  4  1  0
  4  5  2  0
  5  6  1  0
  6  7  1  0
  7  8  1  0
  8  9  2  0
  9 10  1  0
 10 11  1  0
 11 12  1  0
 12 13  1  0
  8 13  1  0
  9 14  1  0
 14 15  2  0
 14 16  1  0
 16 17  2  0
  7 17  1  0
 17 18  1  0
 18 19  1  0
 19 20  1  0
 16 20  1  0
  5 21  1  0
 21 22  1  0
 21 23  2  0
  2 23  1  0
M  END
> <COMPOUND_ID>
DNDI1318078

$$$$

  SciTegic04051205032D

 28 31  0  0  0  0            999 V2000
    7.1434   -8.1894    0.0000 O   0  0
    7.1434   -7.3644    0.0000 C   0  0
    7.8579   -6.9519    0.0000 C   0  0
    7.8579   -6.1269    0.0000 C   0  0
    7.1434   -5.7144    0.0000 C   0  0
    6.4289   -6.1269    0.0000 C   0  0
    5.7145   -5.7144    0.0000 C   0  0
    5.0000   -6.1269    0.0000 C   0  0
    5.0000   -6.9519    0.0000 C   0  0
    5.7145   -7.3644    0.0000 N   0  0
    6.4289   -6.9519    0.0000 C   0  0
    8.5724   -7.3644    0.0000 C   0  0
    8.5724   -8.1894    0.0000 N   0  0
    7.8579   -8.6019    0.0000 C   0  0
    7.8579   -9.4269    0.0000 C   0  0
    8.5724   -9.8394    0.0000 O   0  0
    9.2868   -9.4269    0.0000 C   0  0
    9.2868   -8.6019    0.0000 C   0  0
    9.2868   -6.9519    0.0000 C   0  0
   10.0013   -7.3644    0.0000 C   0  0
   10.7158   -6.9519    0.0000 C   0  0
   10.7158   -6.1269    0.0000 C   0  0
   10.0013   -5.7144    0.0000 C   0  0
    9.2868   -6.1269    0.0000 C   0  0
   11.4302   -5.7144    0.0000 C   0  0
   11.0177   -5.0000    0.0000 F   0  0
   11.8427   -6.4289    0.0000 F   0  0
   12.1447   -5.3019    0.0000 F   0  0
  1  2  1  0
  2  3  2  0
  3  4  1  0
  4  5  2  0
  5  6  1  0
  6  7  2  0
  7  8  1  0
  8  9  2  0
  9 10  1  0
 10 11  2  0
  2 11  1  0
  6 11  1  0
  3 12  1  0
 12 13  1  0
 13 14  1  0
 14 15  1  0
 15 16  1  0
 16 17  1  0
 17 18  1  0
 13 18  1  0
 12 19  1  0
 19 20  2  0
 20 21  1  0
 21 22  2  0
 22 23  1  0
 23 24  2  0
 19 24  1  0
 22 25  1  0
 25 26  1  0
 25 27  1  0
 25 28  1  0
M  END
> <COMPOUND_ID>
DNDI1318111

$$$$

  SciTegic04051205032D

 26 29  0  0  0  0            999 V2000
    6.3057   -7.7180    0.0000 O   0  0
    7.0202   -7.3055    0.0000 C   0  0
    7.7347   -7.7180    0.0000 C   0  0
    7.7347   -8.5430    0.0000 S   0  0
    8.4491   -8.9555    0.0000 C   0  0
    9.1636   -8.5430    0.0000 N   0  0
    9.8781   -8.9555    0.0000 C   0  0
    9.8781   -9.7805    0.0000 C   0  0
   10.6627  -10.0354    0.0000 C   0  0
   11.1476   -9.3680    0.0000 N   0  0
   10.6627   -8.7006    0.0000 N   0  0
    9.1636  -10.1930    0.0000 C   0  0
    9.1636  -11.0180    0.0000 O   0  0
    8.4491   -9.7805    0.0000 N   0  0
    7.7347  -10.1930    0.0000 C   0  0
    7.0202   -9.7805    0.0000 C   0  0
    6.3057  -10.1930    0.0000 C   0  0
    6.3057  -11.0180    0.0000 C   0  0
    7.0202  -11.4305    0.0000 C   0  0
    7.7347  -11.0180    0.0000 C   0  0
    7.0202   -6.4805    0.0000 N   0  0
    6.3057   -6.0680    0.0000 C   0  0
    6.2195   -5.2475    0.0000 N   0  0
    5.4125   -5.0760    0.0000 C   0  0
    5.0000   -5.7905    0.0000 C   0  0
    5.5520   -6.4036    0.0000 S   0  0
  1  2  2  0
  2  3  1  0
  3  4  1  0
  4  5  1  0
  5  6  2  0
  6  7  1  0
  7  8  2  0
  8  9  1  0
  9 10  2  0
 10 11  1  0
  7 11  1  0
  8 12  1  0
 12 13  2  0
 12 14  1  0
  5 14  1  0
 14 15  1  0
 15 16  2  0
 16 17  1  0
 17 18  2  0
 18 19  1  0
 19 20  2  0
 15 20  1  0
  2 21  1  0
 21 22  1  0
 22 23  2  0
 23 24  1  0
 24 25  2  0
 25 26  1  0
 22 26  1  0
M  END
> <COMPOUND_ID>
DNDI1318134

$$$$

  SciTegic04051205032D

 24 25  0  0  0  0            999 V2000
   12.1447   -9.9500    0.0000 C   0  0
   11.4302  -10.3625    0.0000 C   0  0
   11.4302  -11.1875    0.0000 O   0  0
   10.7157   -9.9500    0.0000 N   0  0
   10.7157   -9.1250    0.0000 C   0  0
   11.4302   -8.7125    0.0000 S   0  0
   10.0013   -8.7125    0.0000 N   0  0
   10.0013   -7.8875    0.0000 N   0  0
    9.2868   -7.4750    0.0000 C   0  0
    8.5723   -7.8875    0.0000 O   0  0
    9.2868   -6.6500    0.0000 C   0  0
   10.0013   -6.2375    0.0000 C   0  0
   10.0013   -5.4125    0.0000 C   0  0
    9.2868   -5.0000    0.0000 C   0  0
    8.5723   -5.4125    0.0000 C   0  0
    8.5723   -6.2375    0.0000 C   0  0
    7.8578   -6.6500    0.0000 O   0  0
    7.1434   -6.2375    0.0000 C   0  0
    6.4289   -6.6500    0.0000 C   0  0
    5.7144   -6.2375    0.0000 C   0  0
    5.0000   -6.6500    0.0000 C   0  0
    5.0000   -7.4750    0.0000 C   0  0
    5.7144   -7.8875    0.0000 C   0  0
    6.4289   -7.4750    0.0000 C   0  0
  1  2  1  0
  2  3  2  0
  2  4  1  0
  4  5  1  0
  5  6  2  0
  5  7  1  0
  7  8  1  0
  8  9  1  0
  9 10  2  0
  9 11  1  0
 11 12  2  0
 12 13  1  0
 13 14  2  0
 14 15  1  0
 15 16  2  0
 11 16  1  0
 16 17  1  0
 17 18  1  0
 18 19  1  0
 19 20  2  0
 20 21  1  0
 21 22  2  0
 22 23  1  0
 23 24  2  0
 19 24  1  0
M  END
> <COMPOUND_ID>
DNDI1318193

$$$$

  SciTegic04051205032D

 27 30  0  0  0  0            999 V2000
   10.8055   -6.3507    0.0000 C   0  0
   11.2180   -7.0652    0.0000 C   0  0
   10.8055   -7.7796    0.0000 N   0  0
    9.9805   -7.7796    0.0000 C   0  0
    9.5680   -8.4941    0.0000 C   0  0
    9.9805   -9.2086    0.0000 C   0  0
   10.8055   -9.2086    0.0000 C   0  0
   11.2180   -9.9230    0.0000 C   0  0
   12.0430   -9.9230    0.0000 C   0  0
   12.4555  -10.6375    0.0000 O   0  0
   12.0430  -11.3520    0.0000 C   0  0
   12.4555   -9.2086    0.0000 C   0  0
   12.0430   -8.4941    0.0000 C   0  0
   11.2180   -8.4941    0.0000 C   0  0
    9.5680   -7.0652    0.0000 C   0  0
    8.7430   -7.0652    0.0000 C   0  0
    8.2581   -6.3977    0.0000 N   0  3
    8.5130   -5.6131    0.0000 C   0  0
    7.9610   -5.0000    0.0000 C   0  0
    7.4734   -6.6527    0.0000 C   0  0
    6.7590   -6.2402    0.0000 C   0  0
    6.0445   -6.6527    0.0000 C   0  0
    5.3300   -6.2402    0.0000 Cl  0  0
    6.0445   -7.4777    0.0000 C   0  0
    6.7590   -7.8902    0.0000 C   0  0
    7.4734   -7.4777    0.0000 C   0  0
    8.2581   -7.7326    0.0000 S   0  0
  1  2  1  0
  2  3  1  0
  3  4  1  0
  4  5  1  0
  5  6  2  0
  6  7  1  0
  7  8  2  0
  8  9  1  0
  9 10  1  0
 10 11  1  0
  9 12  2  0
 12 13  1  0
 13 14  2  0
  3 14  1  0
  7 14  1  0
  4 15  2  0
 15 16  1  0
 16 17  2  0
 17 18  1  0
 18 19  1  0
 17 20  1  0
 20 21  2  0
 21 22  1  0
 22 23  1  0
 22 24  2  0
 24 25  1  0
 25 26  2  0
 20 26  1  0
 26 27  1  0
 16 27  1  0
M  CHG  1  17   1
M  END
> <COMPOUND_ID>
DNDI1318219

$$$$

  SciTegic04051205032D

 18 20  0  0  0  0            999 V2000
    7.4685   -8.5955    0.0000 C   0  0
    7.2135   -7.8109    0.0000 N   0  0
    7.6985   -7.1434    0.0000 C   0  0
    7.2135   -6.4760    0.0000 S   0  0
    6.4289   -6.7309    0.0000 C   0  0
    5.7144   -6.3184    0.0000 C   0  0
    5.0000   -6.7309    0.0000 C   0  0
    5.0000   -7.5559    0.0000 C   0  0
    5.7144   -7.9684    0.0000 C   0  0
    6.4289   -7.5559    0.0000 C   0  0
    8.5235   -7.1434    0.0000 C   0  0
    8.9360   -6.4290    0.0000 C   0  0
    9.7610   -6.4290    0.0000 C   0  0
   10.1735   -5.7145    0.0000 C   0  0
    9.7610   -5.0000    0.0000 C   0  0
    8.9360   -5.0000    0.0000 C   0  0
    8.5235   -5.7145    0.0000 N   0  3
    7.6985   -5.7145    0.0000 C   0  0
  1  2  1  0
  2  3  1  0
  3  4  1  0
  4  5  1  0
  5  6  2  0
  6  7  1  0
  7  8  2  0
  8  9  1  0
  9 10  2  0
  2 10  1  0
  5 10  1  0
  3 11  2  0
 11 12  1  0
 12 13  2  0
 13 14  1  0
 14 15  2  0
 15 16  1  0
 16 17  2  0
 12 17  1  0
 17 18  1  0
M  CHG  1  17   1
M  END
> <COMPOUND_ID>
DNDI1318235

$$$$

  SciTegic04051205032D

 25 28  0  0  0  0            999 V2000
   13.3630   -8.4914    0.0000 C   0  0
   12.9505   -7.7770    0.0000 N   0  0
   13.3630   -7.0625    0.0000 C   0  0
   12.1255   -7.7770    0.0000 C   0  0
   11.7130   -7.0625    0.0000 C   0  0
   10.8880   -7.0625    0.0000 C   0  0
   10.4755   -7.7770    0.0000 C   0  0
   10.8880   -8.4914    0.0000 C   0  0
   11.7130   -8.4914    0.0000 C   0  0
    9.6505   -7.7770    0.0000 C   0  0
    9.2380   -7.0625    0.0000 C   0  0
    8.4130   -7.0625    0.0000 C   0  0
    7.9281   -6.3951    0.0000 N   0  3
    8.1830   -5.6104    0.0000 C   0  0
    7.1434   -6.6500    0.0000 C   0  0
    6.4290   -6.2375    0.0000 C   0  0
    6.4290   -5.4125    0.0000 C   0  0
    5.7145   -5.0000    0.0000 C   0  0
    5.0000   -5.4125    0.0000 C   0  0
    5.0000   -6.2375    0.0000 C   0  0
    5.7145   -6.6500    0.0000 C   0  0
    5.7145   -7.4750    0.0000 C   0  0
    6.4290   -7.8875    0.0000 C   0  0
    7.1434   -7.4750    0.0000 C   0  0
    7.9281   -7.7299    0.0000 S   0  0
  1  2  1  0
  2  3  1  0
  2  4  1  0
  4  5  2  0
  5  6  1  0
  6  7  2  0
  7  8  1  0
  8  9  2  0
  4  9  1  0
  7 10  1  0
 10 11  2  0
 11 12  1  0
 12 13  2  0
 13 14  1  0
 13 15  1  0
 15 16  2  0
 16 17  1  0
 17 18  2  0
 18 19  1  0
 19 20  2  0
 20 21  1  0
 16 21  1  0
 21 22  2  0
 22 23  1  0
 23 24  2  0
 15 24  1  0
 24 25  1  0
 12 25  1  0
M  CHG  1  13   1
M  END
> <COMPOUND_ID>
DNDI1318257

$$$$

  SciTegic04051205032D

 23 25  0  0  0  0            999 V2000
    6.6561  -12.8819    0.0000 C   0  0
    6.1040  -12.2688    0.0000 O   0  0
    6.3590  -11.4841    0.0000 C   0  0
    7.1659  -11.3126    0.0000 C   0  0
    7.4209  -10.5280    0.0000 C   0  0
    6.8688   -9.9149    0.0000 C   0  0
    6.0619  -10.0864    0.0000 C   0  0
    5.8069  -10.8710    0.0000 C   0  0
    5.0000  -11.0426    0.0000 Cl  0  0
    7.1238   -9.1303    0.0000 N   0  0
    7.9084   -8.8753    0.0000 C   0  0
    8.5758   -9.3603    0.0000 O   0  0
    7.9084   -8.0503    0.0000 C   0  0
    7.1238   -7.7954    0.0000 N   0  0
    6.8688   -7.0108    0.0000 C   0  0
    7.4209   -6.3977    0.0000 C   0  0
    8.2278   -6.5692    0.0000 C   0  0
    8.7799   -5.9561    0.0000 C   0  0
    8.5249   -5.1715    0.0000 C   0  0
    7.7180   -5.0000    0.0000 C   0  0
    7.1659   -5.6131    0.0000 C   0  0
    6.6389   -8.4628    0.0000 C   0  0
    5.8139   -8.4628    0.0000 S   0  0
  1  2  1  0
  2  3  1  0
  3  4  2  0
  4  5  1  0
  5  6  2  0
  6  7  1  0
  7  8  2  0
  3  8  1  0
  8  9  1  0
  6 10  1  0
 10 11  1  0
 11 12  2  0
 11 13  1  0
 13 14  1  0
 14 15  1  0
 15 16  1  0
 16 17  2  0
 17 18  1  0
 18 19  2  0
 19 20  1  0
 20 21  2  0
 16 21  1  0
 14 22  1  0
 10 22  1  0
 22 23  2  0
M  END
> <COMPOUND_ID>
DNDI1318303

$$$$

  SciTegic04051205032D

 25 27  0  0  0  0            999 V2000
   12.1447   -7.4750    0.0000 C   0  0
   11.4303   -7.8875    0.0000 C   0  0
   10.7158   -7.4750    0.0000 O   0  0
   10.0013   -7.8875    0.0000 C   0  0
   10.0013   -8.7125    0.0000 O   0  0
    9.2868   -7.4750    0.0000 C   0  0
    8.5724   -7.8875    0.0000 O   0  0
    7.8579   -7.4750    0.0000 C   0  0
    7.8579   -6.6500    0.0000 C   0  0
    7.1434   -6.2375    0.0000 C   0  0
    7.1434   -5.4125    0.0000 O   0  0
    6.4290   -6.6500    0.0000 C   0  0
    5.7145   -6.2375    0.0000 C   0  0
    5.0000   -6.6500    0.0000 C   0  0
    5.0000   -7.4750    0.0000 C   0  0
    5.7145   -7.8875    0.0000 C   0  0
    6.4290   -7.4750    0.0000 C   0  0
    7.1434   -7.8875    0.0000 C   0  0
    7.1434   -8.7125    0.0000 O   0  0
    8.5724   -6.2375    0.0000 C   0  0
    9.2868   -6.6500    0.0000 C   0  0
   10.0013   -6.2375    0.0000 C   0  0
   10.0013   -5.4125    0.0000 C   0  0
    9.2868   -5.0000    0.0000 C   0  0
    8.5724   -5.4125    0.0000 C   0  0
  1  2  1  0
  2  3  1  0
  3  4  1  0
  4  5  2  0
  4  6  1  0
  6  7  1  0
  7  8  1  0
  8  9  2  0
  9 10  1  0
 10 11  2  0
 10 12  1  0
 12 13  2  0
 13 14  1  0
 14 15  2  0
 15 16  1  0
 16 17  2  0
 12 17  1  0
 17 18  1  0
  8 18  1  0
 18 19  2  0
  9 20  1  0
 20 21  2  0
 21 22  1  0
 22 23  2  0
 23 24  1  0
 24 25  2  0
 20 25  1  0
M  END
> <COMPOUND_ID>
DNDI1318392

$$$$

  SciTegic04051205032D

 24 26  0  0  0  0            999 V2000
    8.1894  -11.6000    0.0000 C   0  0
    7.4750  -11.1875    0.0000 O   0  0
    7.4750  -10.3625    0.0000 C   0  0
    8.1894   -9.9500    0.0000 C   0  0
    8.1894   -9.1250    0.0000 C   0  0
    7.4750   -8.7125    0.0000 C   0  0
    6.7605   -9.1250    0.0000 C   0  0
    6.7605   -9.9500    0.0000 C   0  0
    7.4750   -7.8875    0.0000 C   0  0
    6.7605   -7.4750    0.0000 O   0  0
    8.1894   -7.4750    0.0000 C   0  0
    8.9039   -7.8875    0.0000 C   0  0
    8.1894   -6.6500    0.0000 N   0  0
    8.9039   -6.2375    0.0000 C   0  0
    8.9039   -5.4125    0.0000 C   0  0
    8.1894   -5.0000    0.0000 C   0  0
    7.4750   -5.4125    0.0000 C   0  0
    7.4750   -6.2375    0.0000 C   0  0
    6.6500   -6.2375    0.0000 C   0  0
    6.2375   -6.9520    0.0000 N   0  0
    5.4125   -6.9520    0.0000 C   0  0
    5.0000   -6.2375    0.0000 C   0  0
    5.4125   -5.5230    0.0000 C   0  0
    6.2375   -5.5230    0.0000 C   0  0
  1  2  1  0
  2  3  1  0
  3  4  2  0
  4  5  1  0
  5  6  2  0
  6  7  1  0
  7  8  2  0
  3  8  1  0
  6  9  1  0
  9 10  2  0
  9 11  1  0
 11 12  1  0
 11 13  1  0
 13 14  1  0
 14 15  2  0
 15 16  1  0
 16 17  2  0
 17 18  1  0
 13 18  1  0
 18 19  2  0
 19 20  1  0
 20 21  1  0
 21 22  2  0
 22 23  1  0
 23 24  2  0
 19 24  1  0
M  END
> <COMPOUND_ID>
DNDI1318421

$$$$

  SciTegic04051205032D

 20 23  0  0  0  0            999 V2000
    9.1329   -6.0446    0.0000 O   0  0
    8.5724   -6.6499    0.0000 S   0  0
    9.3768   -6.4669    0.0000 O   0  0
    7.8579   -6.2374    0.0000 N   0  0
    7.1434   -6.6499    0.0000 C   0  0
    7.1434   -7.4749    0.0000 C   0  0
    6.4290   -7.8874    0.0000 C   0  0
    5.7145   -7.4749    0.0000 C   0  0
    5.7145   -6.6499    0.0000 C   0  0
    5.0000   -6.2374    0.0000 C   0  0
    5.0000   -5.4124    0.0000 C   0  0
    5.7145   -5.0000    0.0000 C   0  0
    6.4290   -5.4124    0.0000 N   0  0
    6.4290   -6.2374    0.0000 C   0  0
    7.8579   -7.8874    0.0000 C   0  0
    7.8579   -8.7124    0.0000 C   0  0
    8.5724   -9.1249    0.0000 C   0  0
    9.2868   -8.7124    0.0000 C   0  0
    9.2868   -7.8874    0.0000 C   0  0
    8.5724   -7.4749    0.0000 C   0  0
  1  2  2  0
  2  3  2  0
  2  4  1  0
  4  5  1  0
  5  6  2  0
  6  7  1  0
  7  8  2  0
  8  9  1  0
  9 10  2  0
 10 11  1  0
 11 12  2  0
 12 13  1  0
 13 14  2  0
  5 14  1  0
  9 14  1  0
  6 15  1  0
 15 16  2  0
 16 17  1  0
 17 18  2  0
 18 19  1  0
 19 20  2  0
  2 20  1  0
 15 20  1  0
M  END
> <COMPOUND_ID>
DNDI1318477

$$$$

  SciTegic04051205032D

 19 21  0  0  0  0            999 V2000
    8.0229   -8.5475    0.0000 C   0  0
    8.0229   -7.7225    0.0000 N   0  0
    8.7374   -7.3100    0.0000 N   0  0
    8.7374   -6.4850    0.0000 C   0  0
    8.0229   -6.0725    0.0000 N   0  0
    7.3084   -6.4850    0.0000 C   0  0
    6.5940   -6.0725    0.0000 C   0  0
    6.5940   -5.2475    0.0000 O   0  0
    5.8795   -6.4850    0.0000 N   0  0
    5.1650   -6.0725    0.0000 C   0  0
    5.8795   -7.3100    0.0000 C   0  0
    5.1650   -7.7225    0.0000 O   0  0
    6.5940   -7.7225    0.0000 N   0  0
    7.3084   -7.3100    0.0000 C   0  0
    9.4518   -6.0725    0.0000 C   0  0
   10.2055   -6.4081    0.0000 C   0  0
   10.7575   -5.7950    0.0000 C   0  0
   10.3450   -5.0805    0.0000 C   0  0
    9.5381   -5.2521    0.0000 S   0  0
  1  2  1  0
  2  3  1  0
  3  4  2  0
  4  5  1  0
  5  6  2  0
  6  7  1  0
  7  8  2  0
  7  9  1  0
  9 10  1  0
  9 11  1  0
 11 12  2  0
 11 13  1  0
 13 14  2  0
  2 14  1  0
  6 14  1  0
  4 15  1  0
 15 16  2  0
 16 17  1  0
 17 18  2  0
 18 19  1  0
 15 19  1  0
M  END
> <COMPOUND_ID>
DNDI1318511

$$$$

  SciTegic04051205032D

 26 29  0  0  0  0            999 V2000
    8.2704   -8.1895    0.0000 C   0  0
    7.8579   -7.4750    0.0000 C   0  0
    7.8579   -6.6500    0.0000 N   0  3
    8.5724   -6.2375    0.0000 C   0  0
    8.5724   -5.4125    0.0000 C   0  0
    7.8579   -5.0000    0.0000 C   0  0
    7.1435   -5.4125    0.0000 C   0  0
    6.4290   -5.0000    0.0000 C   0  0
    5.7145   -5.4125    0.0000 C   0  0
    5.0000   -5.0000    0.0000 C   0  0
    5.7145   -6.2375    0.0000 C   0  0
    6.4290   -6.6500    0.0000 C   0  0
    7.1435   -6.2375    0.0000 C   0  0
    9.2869   -6.6500    0.0000 C   0  0
    9.2869   -7.4750    0.0000 C   0  0
    8.6194   -7.9600    0.0000 S   0  0
    8.8744   -8.7446    0.0000 C   0  0
    9.6994   -8.7446    0.0000 C   0  0
    9.9543   -7.9600    0.0000 N   0  0
   10.7389   -7.7050    0.0000 C   0  0
   10.1843   -9.4120    0.0000 C   0  0
    9.8487  -10.1657    0.0000 C   0  0
   10.3337  -10.8331    0.0000 C   0  0
   11.1541  -10.7469    0.0000 C   0  0
   11.4897   -9.9932    0.0000 C   0  0
   11.0048   -9.3258    0.0000 C   0  0
  1  2  1  0
  2  3  1  0
  3  4  2  0
  4  5  1  0
  5  6  2  0
  6  7  1  0
  7  8  2  0
  8  9  1  0
  9 10  1  0
  9 11  2  0
 11 12  1  0
 12 13  2  0
  3 13  1  0
  7 13  1  0
  4 14  1  0
 14 15  2  0
 15 16  1  0
 16 17  1  0
 17 18  2  0
 18 19  1  0
 15 19  1  0
 19 20  1  0
 18 21  1  0
 21 22  2  0
 22 23  1  0
 23 24  2  0
 24 25  1  0
 25 26  2  0
 21 26  1  0
M  CHG  1   3   1
M  END
> <COMPOUND_ID>
DNDI1318556

$$$$

  SciTegic04051205032D

 23 25  0  0  0  0            999 V2000
    8.7373   -9.3725    0.0000 C   0  0
    8.0229   -8.9600    0.0000 C   0  0
    8.0229   -8.1350    0.0000 N   0  0
    8.7373   -7.7225    0.0000 N   0  0
    8.7373   -6.8975    0.0000 C   0  0
    8.0229   -6.4850    0.0000 N   0  0
    7.3084   -6.8975    0.0000 C   0  0
    6.5939   -6.4850    0.0000 C   0  0
    6.5939   -5.6600    0.0000 O   0  0
    5.8794   -6.8975    0.0000 N   0  0
    5.1650   -6.4850    0.0000 C   0  0
    5.8794   -7.7225    0.0000 C   0  0
    5.1650   -8.1350    0.0000 O   0  0
    6.5939   -8.1350    0.0000 N   0  0
    7.3084   -7.7225    0.0000 C   0  0
    9.4518   -6.4850    0.0000 C   0  0
   10.1663   -6.8975    0.0000 C   0  0
   10.8807   -6.4850    0.0000 C   0  0
   10.8807   -5.6600    0.0000 C   0  0
   11.5952   -5.2475    0.0000 O   0  0
   12.3098   -5.6600    0.0000 C   0  0
   10.1663   -5.2475    0.0000 C   0  0
    9.4518   -5.6600    0.0000 C   0  0
  1  2  1  0
  2  3  1  0
  3  4  1  0
  4  5  2  0
  5  6  1  0
  6  7  2  0
  7  8  1  0
  8  9  2  0
  8 10  1  0
 10 11  1  0
 10 12  1  0
 12 13  2  0
 12 14  1  0
 14 15  2  0
  3 15  1  0
  7 15  1  0
  5 16  1  0
 16 17  2  0
 17 18  1  0
 18 19  2  0
 19 20  1  0
 20 21  1  0
 19 22  1  0
 22 23  2  0
 16 23  1  0
M  END
> <COMPOUND_ID>
DNDI1318588

$$$$

  SciTegic04051205032D

 28 31  0  0  0  0            999 V2000
    7.6890  -11.8807    0.0000 C   0  0
    7.2136  -11.2065    0.0000 C   0  0
    7.2253  -12.0314    0.0000 C   0  0
    7.6985  -10.5391    0.0000 C   0  0
    8.5235  -10.5391    0.0000 C   0  0
    7.2136   -9.8716    0.0000 N   0  0
    7.4685   -9.0870    0.0000 C   0  0
    8.2755   -8.9155    0.0000 C   0  0
    8.5304   -8.1308    0.0000 C   0  0
    9.3374   -7.9593    0.0000 C   0  0
    9.5923   -7.1747    0.0000 N   0  0
   10.3770   -6.9198    0.0000 C   0  0
   11.0444   -7.4047    0.0000 C   0  0
   10.3770   -6.0948    0.0000 C   0  0
   10.8713   -5.4342    0.0000 C   0  0
   11.1579   -5.8287    0.0000 C   0  0
    9.5923   -5.8398    0.0000 C   0  0
    9.2568   -5.0862    0.0000 C   0  0
    8.4363   -5.0000    0.0000 C   0  0
    7.9514   -5.6673    0.0000 C   0  0
    8.2869   -6.4210    0.0000 C   0  0
    9.1074   -6.5073    0.0000 C   0  0
    6.4290  -10.1266    0.0000 C   0  0
    5.7145   -9.7141    0.0000 C   0  0
    5.0000  -10.1266    0.0000 C   0  0
    5.0000  -10.9516    0.0000 C   0  0
    5.7145  -11.3641    0.0000 C   0  0
    6.4290  -10.9516    0.0000 C   0  0
  1  2  1  0
  2  3  1  0
  2  4  1  0
  4  5  2  0
  4  6  1  0
  6  7  1  0
  7  8  1  0
  8  9  1  0
  9 10  1  0
 10 11  1  0
 11 12  1  0
 12 13  2  0
 12 14  1  0
 14 15  1  0
 14 16  1  0
 14 17  1  0
 17 18  2  0
 18 19  1  0
 19 20  2  0
 20 21  1  0
 21 22  2  0
 11 22  1  0
 17 22  1  0
  6 23  1  0
 23 24  2  0
 24 25  1  0
 25 26  2  0
 26 27  1  0
 27 28  2  0
  2 28  1  0
 23 28  1  0
M  END
> <COMPOUND_ID>
DNDI1318610

$$$$

  SciTegic04051205032D

 20 22  0  0  0  0            999 V2000
    8.4035   -7.1667    0.0000 O   0  0
    7.9280   -6.4924    0.0000 C   0  0
    7.9397   -7.3173    0.0000 C   0  0
    7.2312   -7.7399    0.0000 C   0  0
    6.5109   -7.3376    0.0000 O   0  0
    7.2429   -8.5648    0.0000 C   0  0
    6.5823   -9.0592    0.0000 C   0  0
    6.8484   -9.8401    0.0000 C   0  0
    7.6733   -9.8284    0.0000 C   0  0
    7.9171   -9.0403    0.0000 S   0  0
    8.4130   -5.8250    0.0000 C   0  0
    9.2380   -5.8250    0.0000 O   0  0
    7.9280   -5.1575    0.0000 N   0  0
    7.1434   -5.4125    0.0000 C   0  0
    6.4290   -5.0000    0.0000 C   0  0
    5.7145   -5.4125    0.0000 C   0  0
    5.7145   -6.2375    0.0000 C   0  0
    5.0000   -6.6500    0.0000 I   0  0
    6.4290   -6.6500    0.0000 C   0  0
    7.1434   -6.2375    0.0000 C   0  0
  1  2  1  0
  2  3  1  0
  3  4  1  0
  4  5  2  0
  4  6  1  0
  6  7  2  0
  7  8  1  0
  8  9  2  0
  9 10  1  0
  6 10  1  0
  2 11  1  0
 11 12  2  0
 11 13  1  0
 13 14  1  0
 14 15  2  0
 15 16  1  0
 16 17  2  0
 17 18  1  0
 17 19  1  0
 19 20  2  0
  2 20  1  0
 14 20  1  0
M  END
> <COMPOUND_ID>
DNDI1318693

$$$$

  SciTegic04051205032D

 28 30  0  0  0  0            999 V2000
    6.4818  -12.2688    0.0000 C   0  0
    6.7368  -11.4842    0.0000 N   0  0
    7.5214  -11.2293    0.0000 N   0  0
    7.5214  -10.4043    0.0000 C   0  0
    8.1888   -9.9193    0.0000 O   0  0
    6.7368  -10.1493    0.0000 C   0  0
    6.4818   -9.3647    0.0000 N   0  0
    7.0338   -8.7516    0.0000 N   0  0
    6.7789   -7.9670    0.0000 C   0  0
    5.9719   -7.7955    0.0000 C   0  0
    5.1650   -7.6239    0.0000 N   0  0
    7.3309   -7.3539    0.0000 C   0  0
    8.1379   -7.5254    0.0000 O   0  0
    7.0760   -6.5693    0.0000 C   0  0
    7.6280   -5.9562    0.0000 C   0  0
    7.3731   -5.1715    0.0000 C   0  0
    6.5661   -5.0000    0.0000 C   0  0
    6.0141   -5.6131    0.0000 C   0  0
    6.2690   -6.3977    0.0000 C   0  0
    5.7170   -7.0108    0.0000 C   0  0
    6.2518  -10.8168    0.0000 C   0  0
    5.4268  -10.8168    0.0000 C   0  0
    8.1888  -11.7142    0.0000 C   0  0
    8.1026  -12.5347    0.0000 C   0  0
    8.7700  -13.0196    0.0000 C   0  0
    9.5237  -12.6840    0.0000 C   0  0
    9.6099  -11.8635    0.0000 C   0  0
    8.9425  -11.3786    0.0000 C   0  0
  1  2  1  0
  2  3  1  0
  3  4  1  0
  4  5  2  0
  4  6  1  0
  6  7  1  0
  7  8  1  0
  8  9  2  0
  9 10  1  0
 10 11  3  0
  9 12  1  0
 12 13  2  0
 12 14  1  0
 14 15  2  0
 15 16  1  0
 16 17  2  0
 17 18  1  0
 18 19  2  0
 14 19  1  0
 19 20  1  0
  6 21  2  0
  2 21  1  0
 21 22  1  0
  3 23  1  0
 23 24  2  0
 24 25  1  0
 25 26  2  0
 26 27  1  0
 27 28  2  0
 23 28  1  0
M  END
> <COMPOUND_ID>
DNDI1318724

$$$$

  SciTegic04051205032D

 20 23  0  0  0  0            999 V2000
    7.4685   -5.0000    0.0000 C   0  0
    7.2135   -5.7846    0.0000 N   0  0
    6.4289   -6.0395    0.0000 C   0  0
    5.7144   -5.6270    0.0000 C   0  0
    5.0000   -6.0395    0.0000 C   0  0
    5.0000   -6.8645    0.0000 C   0  0
    5.7144   -7.2770    0.0000 C   0  0
    6.4289   -6.8645    0.0000 C   0  0
    7.2135   -7.1195    0.0000 C   0  0
    7.6984   -6.4520    0.0000 C   0  0
    8.5189   -6.5383    0.0000 C   0  0
    8.8545   -7.2919    0.0000 C   0  0
    9.6750   -7.3782    0.0000 C   0  0
   10.0105   -8.1319    0.0000 C   0  0
   10.8311   -8.2181    0.0000 C   0  0
    9.5256   -8.7993    0.0000 N   0  0
    8.7051   -8.7131    0.0000 C   0  0
    8.2202   -9.3805    0.0000 C   0  0
    8.3696   -7.9594    0.0000 C   0  0
    7.5491   -7.8731    0.0000 C   0  0
  1  2  1  0
  2  3  1  0
  3  4  2  0
  4  5  1  0
  5  6  2  0
  6  7  1  0
  7  8  2  0
  3  8  1  0
  8  9  1  0
  9 10  2  0
  2 10  1  0
 10 11  1  0
 11 12  2  0
 12 13  1  0
 13 14  2  0
 14 15  1  0
 14 16  1  0
 16 17  2  0
 17 18  1  0
 17 19  1  0
 12 19  1  0
 19 20  2  0
  9 20  1  0
M  END
> <COMPOUND_ID>
DNDI1318727

$$$$

  SciTegic04051205032D

 18 20  0  0  0  0            999 V2000
   10.6738   -8.2333    0.0000 N   0  0
   10.4188   -7.4486    0.0000 C   0  0
    9.6118   -7.2771    0.0000 C   0  0
    9.3570   -6.4925    0.0000 C   0  0
    9.8418   -5.8250    0.0000 C   0  0
    9.3570   -5.1576    0.0000 N   0  0
    8.5724   -5.4125    0.0000 C   0  0
    7.8579   -5.0000    0.0000 C   0  0
    7.1434   -5.4125    0.0000 C   0  0
    7.1434   -6.2375    0.0000 C   0  0
    7.8579   -6.6500    0.0000 C   0  0
    8.5724   -6.2375    0.0000 C   0  0
    6.4290   -6.6500    0.0000 C   0  0
    5.7145   -6.2375    0.0000 C   0  0
    5.0000   -6.6500    0.0000 C   0  0
    5.0000   -7.4750    0.0000 C   0  0
    5.7145   -7.8875    0.0000 C   0  0
    6.4290   -7.4750    0.0000 C   0  0
  1  2  1  0
  2  3  1  0
  3  4  1  0
  4  5  2  0
  5  6  1  0
  6  7  1  0
  7  8  2  0
  8  9  1  0
  9 10  2  0
 10 11  1  0
 11 12  2  0
  4 12  1  0
  7 12  1  0
 10 13  1  0
 13 14  1  0
 14 15  1  0
 15 16  1  0
 16 17  1  0
 17 18  1  0
 13 18  1  0
M  END
> <COMPOUND_ID>
DNDI1318731

$$$$

  SciTegic04051205032D

 21 23  0  0  0  0            999 V2000
    7.3084  -12.0445    0.0000 O   0  0
    7.3084  -11.2195    0.0000 C   0  0
    8.0229  -10.8070    0.0000 C   0  0
    8.0229   -9.9820    0.0000 C   0  0
    7.3084   -9.5695    0.0000 C   0  0
    7.3084   -8.7445    0.0000 C   0  0
    6.5939   -8.3320    0.0000 N   0  0
    6.5939   -7.5070    0.0000 N   0  0
    5.8795   -7.0945    0.0000 C   0  0
    5.1650   -7.5070    0.0000 O   0  0
    5.8795   -6.2695    0.0000 C   0  0
    6.5469   -5.7847    0.0000 C   0  0
    6.2920   -5.0000    0.0000 C   0  0
    5.4670   -5.0000    0.0000 C   0  0
    5.2120   -5.7847    0.0000 O   0  0
    6.5939   -9.9820    0.0000 C   0  0
    5.8795   -9.5695    0.0000 C   0  0
    5.1650   -9.9820    0.0000 C   0  0
    5.1650  -10.8070    0.0000 C   0  0
    5.8795  -11.2195    0.0000 N   0  0
    6.5939  -10.8070    0.0000 C   0  0
  1  2  1  0
  2  3  2  0
  3  4  1  0
  4  5  2  0
  5  6  1  0
  6  7  2  0
  7  8  1  0
  8  9  1  0
  9 10  2  0
  9 11  1  0
 11 12  2  0
 12 13  1  0
 13 14  2  0
 14 15  1  0
 11 15  1  0
  5 16  1  0
 16 17  2  0
 17 18  1  0
 18 19  2  0
 19 20  1  0
 20 21  2  0
  2 21  1  0
 16 21  1  0
M  END
> <COMPOUND_ID>
DNDI1318794

$$$$

  SciTegic04051205032D

 29 32  0  0  0  0            999 V2000
   11.4302   -9.9500    0.0000 C   0  0
   10.7158  -10.3625    0.0000 O   0  0
   10.0013   -9.9500    0.0000 C   0  0
   10.0013   -9.1250    0.0000 C   0  0
    9.2868   -8.7125    0.0000 C   0  0
    8.5724   -9.1250    0.0000 C   0  0
    8.5724   -9.9500    0.0000 C   0  0
    9.2868  -10.3625    0.0000 C   0  0
    9.2868  -11.1875    0.0000 O   0  0
    8.5724  -11.6000    0.0000 C   0  0
    7.8579   -8.7125    0.0000 C   0  0
    7.8579   -7.8875    0.0000 N   0  0
    7.1434   -7.4750    0.0000 C   0  0
    7.1434   -6.6500    0.0000 N   0  0
    7.8579   -6.2375    0.0000 C   0  0
    8.5724   -6.6500    0.0000 C   0  0
    9.2868   -6.2375    0.0000 C   0  0
    9.2868   -5.4125    0.0000 C   0  0
   10.0013   -5.0000    0.0000 F   0  0
    8.5724   -5.0000    0.0000 C   0  0
    7.8579   -5.4125    0.0000 C   0  0
    7.1434   -5.0000    0.0000 F   0  0
    6.4290   -7.8875    0.0000 C   0  0
    5.7145   -7.4750    0.0000 C   0  0
    5.0000   -7.8875    0.0000 C   0  0
    5.0000   -8.7125    0.0000 C   0  0
    5.7145   -9.1250    0.0000 C   0  0
    6.4290   -8.7125    0.0000 C   0  0
    7.1434   -9.1250    0.0000 N   0  0
  1  2  1  0
  2  3  1  0
  3  4  2  0
  4  5  1  0
  5  6  2  0
  6  7  1  0
  7  8  2  0
  3  8  1  0
  8  9  1  0
  9 10  1  0
  6 11  1  0
 11 12  2  0
 12 13  1  0
 13 14  1  0
 14 15  1  0
 15 16  2  0
 16 17  1  0
 17 18  2  0
 18 19  1  0
 18 20  1  0
 20 21  2  0
 15 21  1  0
 21 22  1  0
 13 23  2  0
 23 24  1  0
 24 25  2  0
 25 26  1  0
 26 27  2  0
 27 28  1  0
 23 28  1  0
 28 29  2  0
 11 29  1  0
M  END
> <COMPOUND_ID>
DNDI1318834

$$$$

  SciTegic04051205032D

 25 28  0  0  0  0            999 V2000
    7.1434   -8.9600    0.0000 O   0  0
    7.1434   -8.1350    0.0000 C   0  0
    7.8579   -7.7225    0.0000 N   0  0
    8.5723   -8.1350    0.0000 C   0  0
    8.5723   -8.9600    0.0000 C   0  0
    7.9049   -9.4450    0.0000 C   0  0
    8.1598  -10.2296    0.0000 C   0  0
    8.9848  -10.2296    0.0000 C   0  0
    9.2398   -9.4450    0.0000 O   0  0
    7.8579   -6.8975    0.0000 C   0  0
    8.5723   -6.4850    0.0000 S   0  0
    9.2868   -6.8975    0.0000 C   0  0
   10.0013   -6.4850    0.0000 C   0  0
   10.7157   -6.8975    0.0000 C   0  0
   11.4302   -6.4850    0.0000 C   0  0
   11.4302   -5.6600    0.0000 C   0  0
   10.7157   -5.2475    0.0000 N   0  0
   10.0013   -5.6600    0.0000 C   0  0
    7.1434   -6.4850    0.0000 N   0  0
    6.4289   -6.8975    0.0000 C   0  0
    5.7144   -6.4850    0.0000 C   0  0
    5.0000   -6.8975    0.0000 C   0  0
    5.0000   -7.7225    0.0000 C   0  0
    5.7144   -8.1350    0.0000 C   0  0
    6.4289   -7.7225    0.0000 C   0  0
  1  2  2  0
  2  3  1  0
  3  4  1  0
  4  5  1  0
  5  6  2  0
  6  7  1  0
  7  8  2  0
  8  9  1  0
  5  9  1  0
  3 10  1  0
 10 11  1  0
 11 12  1  0
 12 13  1  0
 13 14  2  0
 14 15  1  0
 15 16  2  0
 16 17  1  0
 17 18  2  0
 13 18  1  0
 10 19  2  0
 19 20  1  0
 20 21  2  0
 21 22  1  0
 22 23  2  0
 23 24  1  0
 24 25  2  0
  2 25  1  0
 20 25  1  0
M  END
> <COMPOUND_ID>
DNDI1318840

$$$$

  SciTegic04051205032D

 16 17  0  0  0  0            999 V2000
   10.9935   -6.6554    0.0000 C   0  0
   10.1865   -6.4839    0.0000 C   0  0
    9.6345   -7.0970    0.0000 O   0  0
    8.8275   -6.9255    0.0000 C   0  0
    8.5726   -6.1409    0.0000 O   0  0
    8.2755   -7.5386    0.0000 C   0  0
    7.4685   -7.3670    0.0000 C   0  0
    7.2136   -6.5824    0.0000 N   0  0
    7.6985   -5.9150    0.0000 N   0  0
    7.2136   -5.2475    0.0000 N   0  0
    6.4290   -5.5025    0.0000 C   0  0
    5.7145   -5.0900    0.0000 C   0  0
    5.0000   -5.5025    0.0000 C   0  0
    5.0000   -6.3275    0.0000 C   0  0
    5.7145   -6.7400    0.0000 C   0  0
    6.4290   -6.3275    0.0000 C   0  0
  1  2  1  0
  2  3  1  0
  3  4  1  0
  4  5  2  0
  4  6  1  0
  6  7  2  0
  7  8  1  0
  8  9  1  0
  9 10  2  0
 10 11  1  0
 11 12  2  0
 12 13  1  0
 13 14  2  0
 14 15  1  0
 15 16  2  0
  8 16  1  0
 11 16  1  0
M  END
> <COMPOUND_ID>
DNDI1318886

$$$$

  SciTegic04051205032D

 27 29  0  0  0  0            999 V2000
   13.6890  -10.6492    0.0000 C   0  0
   12.8821  -10.8207    0.0000 C   0  0
   12.3300  -10.2076    0.0000 O   0  0
   11.5231  -10.3791    0.0000 C   0  0
   11.2681  -11.1638    0.0000 O   0  0
   10.9710   -9.7660    0.0000 C   0  0
   11.1425   -8.9591    0.0000 C   0  0
   10.4281   -8.5466    0.0000 C   0  0
    9.8150   -9.0986    0.0000 C   0  0
    9.0080   -8.9271    0.0000 C   0  0
    8.7531   -8.1424    0.0000 N   0  0
    9.2380   -7.4750    0.0000 C   0  0
   10.0630   -7.4750    0.0000 O   0  0
    8.7531   -6.8076    0.0000 C   0  0
    9.0080   -6.0229    0.0000 O   0  0
    7.9684   -7.0625    0.0000 C   0  0
    7.2540   -6.6500    0.0000 C   0  0
    6.5395   -7.0625    0.0000 C   0  0
    5.8250   -6.6500    0.0000 O   0  0
    5.8250   -5.8250    0.0000 C   0  0
    5.0000   -5.8250    0.0000 F   0  0
    6.6500   -5.8250    0.0000 F   0  0
    5.8250   -5.0000    0.0000 F   0  0
    6.5395   -7.8875    0.0000 C   0  0
    7.2540   -8.3000    0.0000 C   0  0
    7.9684   -7.8875    0.0000 C   0  0
   10.1505   -9.8523    0.0000 O   0  0
  1  2  1  0
  2  3  1  0
  3  4  1  0
  4  5  2  0
  4  6  1  0
  6  7  2  0
  7  8  1  0
  8  9  2  0
  9 10  1  0
 10 11  1  0
 11 12  1  0
 12 13  2  0
 12 14  1  0
 14 15  2  0
 14 16  1  0
 16 17  2  0
 17 18  1  0
 18 19  1  0
 19 20  1  0
 20 21  1  0
 20 22  1  0
 20 23  1  0
 18 24  2  0
 24 25  1  0
 25 26  2  0
 11 26  1  0
 16 26  1  0
  9 27  1  0
  6 27  1  0
M  END
> <COMPOUND_ID>
DNDI1318898

$$$$

  SciTegic04051205032D

 23 26  0  0  0  0            999 V2000
    9.0650  -10.4108    0.0000 C   0  0
    8.2400  -10.4108    0.0000 C   0  0
    7.7551   -9.7434    0.0000 C   0  0
    8.0100   -8.9588    0.0000 C   0  0
    7.4580   -8.3457    0.0000 C   0  0
    6.6375   -8.4319    0.0000 S   0  0
    6.3020   -7.6782    0.0000 C   0  0
    5.4950   -7.5067    0.0000 N   0  0
    6.9150   -7.1262    0.0000 N   0  0
    7.6295   -7.5387    0.0000 C   0  0
    8.3832   -7.2031    0.0000 O   0  0
    6.8288   -6.3057    0.0000 C   0  0
    6.1143   -5.8932    0.0000 N   0  0
    6.2859   -5.0862    0.0000 C   0  0
    7.1063   -5.0000    0.0000 C   0  0
    7.4419   -5.7537    0.0000 S   0  0
    6.9705   -9.9983    0.0000 C   0  0
    6.2560   -9.5858    0.0000 C   0  0
    5.5415   -9.9983    0.0000 C   0  0
    5.5415  -10.8233    0.0000 C   0  0
    6.2560  -11.2358    0.0000 C   0  0
    6.9705  -10.8233    0.0000 C   0  0
    7.7551  -11.0783    0.0000 N   0  0
  1  2  1  0
  2  3  2  0
  3  4  1  0
  4  5  2  0
  5  6  1  0
  6  7  1  0
  7  8  2  0
  7  9  1  0
  9 10  1  0
  5 10  1  0
 10 11  2  0
  9 12  1  0
 12 13  2  0
 13 14  1  0
 14 15  2  0
 15 16  1  0
 12 16  1  0
  3 17  1  0
 17 18  2  0
 18 19  1  0
 19 20  2  0
 20 21  1  0
 21 22  2  0
 17 22  1  0
 22 23  1  0
  2 23  1  0
M  END
> <COMPOUND_ID>
DNDI1318925

$$$$

  SciTegic04051205032D

 20 22  0  0  0  0            999 V2000
    8.2755   -9.0145    0.0000 C   0  0
    7.4685   -8.8430    0.0000 C   0  0
    6.9165   -9.4561    0.0000 O   0  0
    7.2136   -8.0584    0.0000 N   0  0
    7.6985   -7.3909    0.0000 C   0  0
    8.5235   -7.3909    0.0000 C   0  0
    8.9360   -6.6765    0.0000 C   0  0
    9.7610   -6.6765    0.0000 C   0  0
   10.1735   -5.9620    0.0000 C   0  0
    9.7610   -5.2475    0.0000 N   0  0
    8.9360   -5.2475    0.0000 C   0  0
    8.5235   -5.9620    0.0000 C   0  0
    7.2136   -6.7235    0.0000 C   0  0
    7.4685   -5.9389    0.0000 O   0  0
    6.4290   -6.9784    0.0000 C   0  0
    5.7145   -6.5659    0.0000 C   0  0
    5.0000   -6.9784    0.0000 C   0  0
    5.0000   -7.8034    0.0000 C   0  0
    5.7145   -8.2159    0.0000 C   0  0
    6.4290   -7.8034    0.0000 C   0  0
  1  2  1  0
  2  3  2  0
  2  4  1  0
  4  5  1  0
  5  6  2  0
  6  7  1  0
  7  8  2  0
  8  9  1  0
  9 10  2  0
 10 11  1  0
 11 12  2  0
  7 12  1  0
  5 13  1  0
 13 14  2  0
 13 15  1  0
 15 16  2  0
 16 17  1  0
 17 18  2  0
 18 19  1  0
 19 20  2  0
  4 20  1  0
 15 20  1  0
M  END
> <COMPOUND_ID>
DNDI1319046

$$$$

  SciTegic04051205032D

 22 24  0  0  0  0            999 V2000
   10.3134   -8.4402    0.0000 C   0  0
   10.9265   -7.8882    0.0000 C   0  0
   10.7550   -7.0812    0.0000 N   0  0
   11.3070   -6.4681    0.0000 C   0  0
   12.1275   -6.5544    0.0000 C   0  0
   10.8945   -5.7537    0.0000 C   0  0
   11.2301   -5.0000    0.0000 C   0  0
   10.0875   -5.9252    0.0000 S   0  0
   10.0013   -6.7457    0.0000 C   0  0
    9.2868   -7.1582    0.0000 C   0  0
    8.5724   -6.7457    0.0000 C   0  0
    8.5724   -5.9207    0.0000 C   0  0
    7.8579   -5.5082    0.0000 C   0  0
    7.1434   -5.9207    0.0000 C   0  0
    6.4290   -5.5082    0.0000 C   0  0
    5.7145   -5.9207    0.0000 C   0  0
    5.0000   -5.5082    0.0000 C   0  0
    5.7145   -6.7457    0.0000 C   0  0
    6.4290   -7.1582    0.0000 C   0  0
    7.1434   -6.7457    0.0000 C   0  0
    7.8579   -7.1582    0.0000 N   0  3
    7.8579   -7.9832    0.0000 C   0  0
  1  2  1  0
  2  3  1  0
  3  4  1  0
  4  5  1  0
  4  6  2  0
  6  7  1  0
  6  8  1  0
  8  9  1  0
  3  9  1  0
  9 10  2  0
 10 11  1  0
 11 12  2  0
 12 13  1  0
 13 14  2  0
 14 15  1  0
 15 16  2  0
 16 17  1  0
 16 18  1  0
 18 19  2  0
 19 20  1  0
 14 20  1  0
 20 21  2  0
 11 21  1  0
 21 22  1  0
M  CHG  1  21   1
M  END
> <COMPOUND_ID>
DNDI1319064

$$$$

  SciTegic04051205032D

 22 25  0  0  0  0            999 V2000
   11.4302   -9.1250    0.0000 C   0  0
   10.7157   -8.7125    0.0000 N   0  0
   10.7157   -7.8875    0.0000 C   0  0
   10.0013   -7.4750    0.0000 C   0  0
    9.2868   -7.8875    0.0000 N   0  0
    9.2868   -8.7125    0.0000 C   0  0
   10.0013   -9.1250    0.0000 C   0  0
    8.5723   -7.4750    0.0000 N   0  0
    8.5723   -6.6500    0.0000 C   0  0
    9.2868   -6.2375    0.0000 C   0  0
    9.2868   -5.4125    0.0000 C   0  0
    8.5723   -5.0000    0.0000 N   0  0
    7.8578   -5.4125    0.0000 C   0  0
    7.1434   -5.0000    0.0000 C   0  0
    6.4289   -5.4125    0.0000 C   0  0
    5.7144   -5.0000    0.0000 C   0  0
    5.0000   -5.4125    0.0000 C   0  0
    5.0000   -6.2375    0.0000 C   0  0
    5.7144   -6.6500    0.0000 C   0  0
    6.4289   -6.2375    0.0000 C   0  0
    7.1434   -6.6500    0.0000 C   0  0
    7.8578   -6.2375    0.0000 C   0  0
  1  2  1  0
  2  3  1  0
  3  4  1  0
  4  5  1  0
  5  6  1  0
  6  7  1  0
  2  7  1  0
  5  8  1  0
  8  9  1  0
  9 10  2  0
 10 11  1  0
 11 12  2  0
 12 13  1  0
 13 14  2  0
 14 15  1  0
 15 16  2  0
 16 17  1  0
 17 18  2  0
 18 19  1  0
 19 20  2  0
 15 20  1  0
 20 21  1  0
 21 22  2  0
  9 22  1  0
 13 22  1  0
M  END
> <COMPOUND_ID>
DNDI1319099

$$$$

  SciTegic04051205032D

 23 25  0  0  0  0            999 V2000
    6.6561  -12.7038    0.0000 C   0  0
    6.1040  -12.0907    0.0000 O   0  0
    6.3590  -11.3061    0.0000 C   0  0
    7.1659  -11.1345    0.0000 C   0  0
    7.4209  -10.3499    0.0000 C   0  0
    6.8689   -9.7368    0.0000 C   0  0
    6.0619   -9.9084    0.0000 C   0  0
    5.8069  -10.6930    0.0000 C   0  0
    5.0000  -10.8645    0.0000 Cl  0  0
    7.1238   -8.9522    0.0000 N   0  0
    7.9084   -8.6973    0.0000 C   0  0
    8.5759   -9.1822    0.0000 O   0  0
    7.9084   -7.8723    0.0000 C   0  0
    7.1238   -7.6173    0.0000 N   0  0
    6.8689   -6.8327    0.0000 C   0  0
    7.4209   -6.2196    0.0000 C   0  0
    8.2414   -6.3058    0.0000 C   0  0
    8.6539   -7.0203    0.0000 C   0  0
    8.5769   -5.5521    0.0000 C   0  0
    7.9638   -5.0000    0.0000 C   0  0
    7.2494   -5.4125    0.0000 S   0  0
    6.6389   -8.2848    0.0000 C   0  0
    5.8139   -8.2848    0.0000 S   0  0
  1  2  1  0
  2  3  1  0
  3  4  2  0
  4  5  1  0
  5  6  2  0
  6  7  1  0
  7  8  2  0
  3  8  1  0
  8  9  1  0
  6 10  1  0
 10 11  1  0
 11 12  2  0
 11 13  1  0
 13 14  1  0
 14 15  1  0
 15 16  1  0
 16 17  2  0
 17 18  1  0
 17 19  1  0
 19 20  2  0
 20 21  1  0
 16 21  1  0
 14 22  1  0
 10 22  1  0
 22 23  2  0
M  END
> <COMPOUND_ID>
DNDI1319199

$$$$

  SciTegic04051205032D

 16 18  0  0  0  0            999 V2000
    8.0585    6.7750    0.0000 C   0  0
   10.7165    5.2625    0.0000 C   0  0
    0.1040    5.2290    0.0000 C   0  0
   13.3585   -2.3665    0.0000 C   0  0
    8.0585    9.8335    0.0000 C   0  0
   13.3585    6.7915    0.0000 C   0  0
    2.7625    6.7585    0.0000 C   0  0
   13.3585    0.6915    0.0000 C   0  0
   13.3415    9.8625    0.0000 C   0  0
   10.6835   11.3790    0.0000 C   0  0
    5.4040   11.3625    0.0000 C   0  0
   16.0000    5.2750    0.0000 C   0  0
   16.0000    2.2335    0.0000 C   0  0
    2.7625    9.8335    0.0000 C   0  0
    5.4040    5.2290    0.0000 N   0  0
   10.7165    2.2210    0.0000 N   0  0
  2  1  1  0
 16  2  2  0
 15  1  2  0
  5  1  1  0
  6  2  1  0
  7 15  1  0
  8 16  1  0
  9 10  2  0
 10  5  1  0
 11  5  2  0
 12  6  2  0
 13 12  1  0
 14 11  1  0
  4  8  1  0
  3  7  1  0
  7 14  2  0
  6  9  1  0
  8 13  2  0
M  END
> <COMPOUND_ID>
DNDI1343110

$$$$

  SciTegic04051205032D

 26 29  0  0  0  0            999 V2000
   -1.3125    0.6291    0.0000 N   0  0
   -1.2792    3.7833    0.0000 N   0  0
    0.1125    3.5375    0.0000 C   0  0
   -2.1792    1.4875    0.0000 C   0  0
    0.7417    2.1791    0.0000 C   0  0
   -2.1833    2.9291    0.0000 C   0  0
    0.0792    0.8666    0.0000 C   0  0
   -1.6833   -0.7250    0.0000 C   0  0
    1.1125    4.5500    0.0000 N   0  0
   -0.9917   -1.9417    0.0000 C   0  0
    2.5083    4.5500    0.0000 C   0  0
   -3.4250    0.7791    0.0000 C   0  0
   -3.4250    3.6375    0.0000 C   0  0
    1.0625   -0.1209    0.0000 C   0  0
   -1.7000   -3.1459    0.0000 C   0  0
    0.4042   -1.9417    0.0000 C   0  0
    3.2083    5.7541    0.0000 C   0  0
    3.2125    3.3375    0.0000 C   0  0
   -4.6542    1.5000    0.0000 C   0  0
   -4.6542    2.9291    0.0000 C   0  0
    1.0958   -3.1459    0.0000 C   0  0
   -1.0000   -4.3625    0.0000 C   0  0
    4.6000    5.7583    0.0000 C   0  0
    4.6000    3.3375    0.0000 C   0  0
    0.4000   -4.3625    0.0000 C   0  0
    5.3000    4.5458    0.0000 C   0  0
  2  6  1  0
  3  5  1  0
  4  1  1  0
  5  7  1  0
  6  4  1  0
  7  1  1  0
  8  1  1  0
  9  3  1  0
 10  8  1  0
 11  9  1  0
 12  4  2  0
 13  6  2  0
 14  7  1  0
 15 10  2  0
 16 10  1  0
 17 11  1  0
 18 11  1  0
 19 12  1  0
 20 19  2  0
 21 16  2  0
 22 15  1  0
 23 17  1  0
 24 18  1  0
 25 21  1  0
 26 24  1  0
  3  2  2  0
 20 13  1  0
 25 22  2  0
 26 23  1  0
M  END
> <COMPOUND_ID>
DNDI1388178

$$$$

  SciTegic04051205032D

 21 23  0  0  0  0            999 V2000
   -0.5083    3.3167    0.0000 S   0  0
   -1.0375    0.3584    0.0000 C   0  0
   -0.0125    0.3584    0.0000 C   0  0
    0.5708    1.2084    0.0000 C   0  0
   -1.7500    2.5209    0.0000 C   0  0
    0.5708    2.5209    0.0000 C   0  0
   -1.7500    1.2084    0.0000 C   0  0
   -1.4500   -0.8541    0.0000 C   0  0
    1.7167    0.5459    0.0000 C   0  0
    1.7167    3.1834    0.0000 C   0  0
    2.8792    1.2084    0.0000 C   0  0
   -3.1042   -2.2499    0.0000 N   0  0
   -2.6917   -1.0708    0.0000 C   0  0
    2.8792    2.5209    0.0000 C   0  0
    3.9958    0.5667    0.0000 Cl  0  0
   -2.9083    3.1834    0.0000 C   0  0
   -2.9083    0.5459    0.0000 C   0  0
   -4.3458   -2.4583    0.0000 C   0  0
   -2.2667   -3.1708    0.0000 C   0  0
   -4.0667    2.5209    0.0000 C   0  0
   -4.0667    1.2084    0.0000 C   0  0
  2  7  1  0
  3  4  1  0
  4  6  2  0
  5  1  1  0
  6  1  1  0
  7  5  1  0
  8  2  1  0
  9  4  1  0
 10  6  1  0
 11  9  2  0
 12 13  1  0
 13  8  1  0
 14 10  2  0
 15 11  1  0
 16  5  2  0
 17  7  2  0
 18 12  1  0
 19 12  1  0
 20 16  1  0
 21 20  2  0
  3  2  2  0
 11 14  1  0
 21 17  1  0
M  END
> <COMPOUND_ID>
DNDI1388182

$$$$

  SciTegic04051205032D

 27 30  0  0  0  0            999 V2000
    0.5167   -1.3083    0.0000 C   0  0
    0.0792   -0.6583    0.0000 N   0  0
    0.0875   -1.9208    0.0000 N   0  0
   -0.6333   -0.9416    0.0000 C   0  0
   -0.6333   -1.6583    0.0000 C   0  0
    0.2875    0.0209    0.0000 C   0  0
    1.2667   -1.3083    0.0000 N   0  0
    0.3500   -2.5583    0.0000 C   0  0
   -0.2333    0.5417    0.0000 C   0  0
   -0.0625    1.2542    0.0000 C   0  0
   -0.5833    1.7584    0.0000 C   0  0
    0.6292    1.4417    0.0000 C   0  0
    0.3042    2.6667    0.0000 C   0  0
    1.0792   -2.6458    0.0000 C   0  0
    0.8292    2.1417    0.0000 C   0  0
   -0.3833    2.4584    0.0000 C   0  0
   -0.9625    0.3792    0.0000 O   0  0
    0.4542    3.3792    0.0000 Cl  0  0
   -1.2625   -2.0791    0.0000 C   0  0
   -1.2958   -0.6083    0.0000 C   0  0
    1.3542   -3.3208    0.0000 C   0  0
    1.5292   -2.0708    0.0000 C   0  0
   -1.9083   -1.6958    0.0000 C   0  0
   -1.9083   -0.9583    0.0000 C   0  0
    2.2500   -2.1708    0.0000 C   0  0
    2.0792   -3.4208    0.0000 C   0  0
    2.5375   -2.8416    0.0000 C   0  0
  2  1  1  0
  3  1  1  0
  4  2  1  0
  5  3  1  0
  6  2  1  0
  7  1  2  0
  8  3  1  0
  9  6  1  0
 10  9  1  0
 11 10  1  0
 12 10  2  0
 13 15  2  0
 14  8  1  0
 15 12  1  0
 16 11  2  0
 17  9  1  0
 18 13  1  0
 19  5  1  0
 20  4  1  0
 21 14  2  0
 22 14  1  0
 23 19  2  0
 24 20  2  0
 25 22  2  0
 26 21  1  0
 27 25  1  0
  5  4  2  0
 23 24  1  0
 27 26  2  0
 16 13  1  0
M  END
> <COMPOUND_ID>
DNDI1388199

$$$$

  SciTegic04051205032D

 22 24  0  0  0  0            999 V2000
    7.1388   -7.8961    0.0000 N   0  0
    7.1388   -8.7158    0.0000 C   0  0
    6.4246   -7.4941    0.0000 C   0  0
    6.4246   -9.1334    0.0000 N   0  0
    5.7143   -7.8961    0.0000 C   0  0
    6.4246   -6.6510    0.0000 N   0  0
    5.7143   -8.7158    0.0000 C   0  0
    7.8570   -9.1334    0.0000 N   0  0
    7.8570   -9.9569    0.0000 C   0  0
    7.1388   -6.2334    0.0000 C   0  0
    8.5713  -10.3668    0.0000 C   0  0
    5.0000   -9.1334    0.0000 C   0  0
    9.2933   -9.9569    0.0000 C   0  0
    8.5713  -11.1864    0.0000 C   0  0
    7.1388   -5.4138    0.0000 C   0  0
    7.8570   -6.6510    0.0000 C   0  0
    9.2933  -11.6157    0.0000 C   0  0
    9.9959  -10.3668    0.0000 C   0  0
    8.5713   -6.2334    0.0000 C   0  0
    7.8570   -5.0000    0.0000 C   0  0
    9.9959  -11.1864    0.0000 C   0  0
    8.5713   -5.4138    0.0000 C   0  0
  2  1  2  0
  3  1  1  0
  4  2  1  0
  5  3  2  0
  6  3  1  0
  7  5  1  0
  8  2  1  0
  9  8  1  0
 10  6  1  0
 11  9  1  0
 12  7  1  0
 13 11  2  0
 14 11  1  0
 15 10  1  0
 16 10  1  0
 17 14  2  0
 18 13  1  0
 19 16  1  0
 20 15  1  0
 21 17  1  0
 22 19  1  0
  4  7  2  0
 22 20  1  0
 21 18  2  0
M  END
> <COMPOUND_ID>
DNDI1388215

$$$$

  SciTegic04051205032D

 26 29  0  0  0  0            999 V2000
    4.3167    3.7292    0.0000 C   0  0
    3.6042    3.3167    0.0000 N   0  0
    4.3292    4.5584    0.0000 C   0  0
    2.8917    4.5667    0.0000 C   0  0
    2.8875    3.7334    0.0000 C   0  0
    5.0375    3.3084    0.0000 C   0  0
    5.0292    2.4834    0.0000 N   0  0
    2.1667    4.9792    0.0000 C   0  0
    2.1667    3.3167    0.0000 C   0  0
    5.0500    4.9667    0.0000 C   0  0
    1.4542    4.5667    0.0000 C   0  0
   10.0292    1.2584    0.0000 C   0  0
    8.5917    2.0792    0.0000 C   0  0
    1.4542    3.7334    0.0000 C   0  0
   10.7417    0.8459    0.0000 F   0  0
    9.3167    0.8417    0.0000 C   0  0
   10.0292    2.0917    0.0000 C   0  0
    8.5917    1.2542    0.0000 C   0  0
    9.3042    2.4959    0.0000 C   0  0
    6.4542    2.4917    0.0000 C   0  0
    5.7417    2.0709    0.0000 C   0  0
    7.8792    2.4917    0.0000 O   0  0
    5.7667    4.5459    0.0000 C   0  0
    5.7625    3.7167    0.0000 C   0  0
    7.1667    2.0792    0.0000 C   0  0
    0.7417    4.9792    0.0000 C   0  0
  2  1  1  0
  3  1  2  0
  4  3  1  0
  5  2  1  0
  6  1  1  0
  7  6  1  0
  8  4  1  0
  9  5  1  0
 10  3  1  0
 11  8  2  0
 12 17  2  0
 13 22  1  0
 14  9  2  0
 15 12  1  0
 16 18  2  0
 17 19  1  0
 18 13  1  0
 19 13  2  0
 20 21  1  0
 21  7  1  0
 22 25  1  0
 23 24  1  0
 24  6  1  0
 25 20  1  0
 26 11  1  0
  5  4  2  0
 10 23  1  0
 14 11  1  0
 16 12  1  0
M  END
> <COMPOUND_ID>
DNDI1388323

$$$$

  SciTegic04051205032D

 23 25  0  0  0  0            999 V2000
   -0.8241   -0.2069    0.0000 C   0  0
   -0.8241    0.2724    0.0000 C   0  0
   -0.4241   -0.4414    0.0000 N   0  0
   -1.2241   -0.4414    0.0000 C   0  0
   -0.4241    0.4931    0.0000 C   0  0
   -1.2241    0.4931    0.0000 C   0  0
   -0.0241   -0.2069    0.0000 C   0  0
   -1.6241   -0.2069    0.0000 C   0  0
   -1.2241   -0.9069    0.0000 C   0  0
   -0.0241    0.2724    0.0000 N   0  0
   -0.4241    0.9724    0.0000 C   0  0
   -1.6241    0.2724    0.0000 C   0  0
    0.3759   -0.4414    0.0000 N   0  0
   -2.0241    0.5138    0.0000 C   0  0
    0.7966   -0.2276    0.0000 C   0  0
    0.7966    0.2345    0.0000 N   0  0
    1.1759   -0.4655    0.0000 N   0  0
    1.1966    0.4724    0.0000 C   0  0
    1.5966   -0.2414    0.0000 C   0  0
    1.5966    0.2138    0.0000 C   0  0
    1.4759    0.7655    0.0000 C   0  0
    0.8759    0.7862    0.0000 C   0  0
    2.0172   -0.4862    0.0000 C   0  0
  1  2  2  0
  1  3  1  0
  1  4  1  0
  2  5  1  0
  2  6  1  0
  3  7  2  0
  4  8  2  0
  4  9  1  0
  5 10  2  0
  5 11  1  0
  6 12  2  0
  7 13  1  0
 12 14  1  0
 13 15  1  0
 15 16  2  0
 15 17  1  0
 16 18  1  0
 17 19  1  0
 18 20  1  0
 18 21  1  0
 18 22  1  0
 19 23  1  0
  7 10  1  0
  8 12  1  0
 19 20  2  0
M  END
> <COMPOUND_ID>
DNDI1395216

$$$$

  SciTegic04051205032D

 13 13  0  0  0  0            999 V2000
    6.4024   -6.1735    0.0000 C   0  0
    7.1389   -6.5979    0.0000 C   0  0
    7.1389   -7.4343    0.0000 C   0  0
    6.4024   -7.8546    0.0000 C   0  0
    6.4024   -5.4120    0.0000 N   0  0
    5.7033   -6.5979    0.0000 C   0  0
    5.7033   -7.4343    0.0000 C   0  0
    6.4024   -8.6910    0.0000 N   0  0
    7.8713   -7.8546    0.0000 C   0  0
    5.7033   -5.0000    0.0000 C   0  0
    7.1389   -5.0000    0.0000 C   0  0
    7.8338   -5.4120    0.0000 C   0  0
    5.0000   -5.4120    0.0000 C   0  0
  2  1  2  0
  3  2  1  0
  4  7  1  0
  5  1  1  0
  6  1  1  0
  7  6  2  0
  8  4  1  0
  9  3  1  0
 10  5  1  0
 11  5  1  0
 12 11  1  0
 13 10  1  0
  4  3  2  0
M  END
> <COMPOUND_ID>
DNDI1416906

$$$$

  SciTegic04051205032D

 14 15  0  0  0  0            999 V2000
    6.4291   -7.7224    0.0000 C   0  0
    6.4291   -6.9026    0.0000 C   0  0
    7.1500   -8.1210    0.0000 C   0  0
    7.1500   -6.5066    0.0000 C   0  0
    7.8836   -7.7224    0.0000 C   0  0
    7.8836   -6.9026    0.0000 C   0  0
    5.7361   -8.1210    0.0000 N   0  0
    7.1500   -8.9688    0.0000 N   0  0
    7.1500   -5.6587    0.0000 N   0  0
    7.8582   -9.3775    0.0000 O   0  0
    6.4443   -5.2475    0.0000 O   0  0
    5.7361   -6.5066    0.0000 C   0  0
    5.0000   -7.7224    0.0000 C   0  0
    5.0000   -6.9026    0.0000 C   0  0
  2  1  2  0
  3  1  1  0
  4  2  1  0
  5  3  1  0
  6  5  2  0
  7  1  1  0
  8  3  2  0
  9  4  2  0
 10  8  1  0
 11  9  1  0
 12  2  1  0
 13  7  2  0
 14 13  1  0
 14 12  2  0
  6  4  1  0
M  END
> <COMPOUND_ID>
DNDI1416907

$$$$

  SciTegic04051205032D

 14 15  0  0  0  0            999 V2000
    7.0460   -7.6170    0.0000 C   0  0
    6.4294   -7.0669    0.0000 C   0  0
    6.7127   -8.3713    0.0000 C   0  0
    5.8959   -8.2837    0.0000 O   0  0
    5.7209   -7.4795    0.0000 C   0  0
    7.8420   -7.4002    0.0000 C   0  0
    6.4294   -6.2376    0.0000 C   0  0
    8.0503   -6.6002    0.0000 O   0  0
    5.0000   -7.0669    0.0000 C   0  0
    5.7126   -5.8293    0.0000 C   0  0
    5.0042   -6.2418    0.0000 C   0  0
    5.7084   -5.0000    0.0000 O   0  0
    8.4254   -7.9795    0.0000 C   0  0
    8.2171   -8.7796    0.0000 C   0  0
  2  1  1  0
  3  1  2  0
  4  3  1  0
  5  2  2  0
  6  1  1  0
  7  2  1  0
  8  6  2  0
  9  5  1  0
 10  7  2  0
 11 10  1  0
 12 10  1  0
 13  6  1  0
 14 13  1  0
  4  5  1  0
 11  9  2  0
M  END
> <COMPOUND_ID>
DNDI1416908

$$$$

  SciTegic04051205032D

 14 14  0  0  0  0            999 V2000
    7.4966   -6.5425    0.0000 C   0  0
    6.9857   -6.0101    0.0000 C   0  0
    6.2663   -6.0101    0.0000 C   0  0
    7.3599   -7.5642    0.0000 C   0  0
    5.7746   -6.5425    0.0000 C   0  0
    5.7746   -7.2668    0.0000 C   0  0
    6.2950   -7.8088    0.0000 C   0  0
    8.1561   -6.0677    0.0000 C   0  0
    5.9425   -5.2547    0.0000 O   0  0
    9.0218   -6.0677    0.0000 N   0  0
    7.2735   -5.2475    0.0000 O   0  0
    5.0000   -7.5282    0.0000 C   0  0
    9.4319   -5.3578    0.0000 C   0  0
    9.4679   -6.7512    0.0000 C   0  0
  2  1  2  0
  3  2  1  0
  4  1  1  0
  5  3  1  0
  6  7  1  0
  7  4  2  0
  8  1  1  0
  9  3  2  0
 10  8  1  0
 11  2  1  0
 12  6  1  0
 13 10  1  0
 14 10  1  0
  5  6  2  0
M  END
> <COMPOUND_ID>
DNDI1416909

$$$$

  SciTegic04051205032D

 14 15  0  0  0  0            999 V2000
    6.5328   -6.6833    0.0000 C   0  0
    6.8323   -5.8402    0.0000 C   0  0
    7.3510   -7.0193    0.0000 O   0  0
    5.7671   -8.0144    0.0000 N   0  0
    7.1323   -5.0000    0.0000 N   0  0
    6.5371   -7.5687    0.0000 C   0  0
    5.7671   -6.2435    0.0000 C   0  0
    8.0041   -6.5167    0.0000 C   0  0
    7.9983   -5.6488    0.0000 O   0  0
    5.8864   -6.9054    0.0000 C   0  0
    5.0000   -6.6877    0.0000 C   0  0
    5.0000   -7.5687    0.0000 C   0  0
    5.5655   -7.3773    0.0000 C   0  0
    8.7245   -6.8338    0.0000 C   0  0
  2  1  1  0
  3  1  1  0
  4  6  1  0
  5  2  3  0
  6  1  1  0
  7  1  1  0
  8  3  1  0
  9  8  2  0
 10  7  1  0
 11  7  1  0
 12 11  1  0
 13 10  1  0
 14  8  1  0
  4 12  1  0
  4 13  1  0
M  END
> <COMPOUND_ID>
DNDI1416910

$$$$

  SciTegic04051205032D

 14 15  0  0  0  0            999 V2000
    7.7784   -6.4098    0.0000 C   0  0
    8.2563   -7.0803    0.0000 N   0  0
    6.9841   -6.6608    0.0000 C   0  0
    7.7714   -7.7474    0.0000 N   0  0
    6.9841   -7.4826    0.0000 C   0  0
    8.0431   -5.6224    0.0000 C   0  0
    7.4964   -5.0000    0.0000 O   0  0
    8.8546   -5.4607    0.0000 O   0  0
    6.4098   -6.0866    0.0000 C   0  0
    6.4064   -8.0706    0.0000 C   0  0
    5.5845   -6.0831    0.0000 C   0  0
    5.5811   -8.0672    0.0000 C   0  0
    5.0000   -7.4826    0.0000 C   0  0
    5.0000   -6.6608    0.0000 C   0  0
  2  1  2  0
  3  1  1  0
  4  2  1  0
  5  3  2  0
  6  1  1  0
  7  6  2  0
  8  6  1  0
  9  3  1  0
 10  5  1  0
 11  9  1  0
 12 10  1  0
 13 14  1  0
 14 11  1  0
  4  5  1  0
 12 13  1  0
M  END
> <COMPOUND_ID>
DNDI1416911

$$$$

  SciTegic04051205032D

 15 17  0  0  0  0            999 V2000
    6.4117   -6.9723    0.0000 C   0  0
    7.1252   -6.5257    0.0000 C   0  0
    7.1252   -5.7095    0.0000 C   0  0
    6.4117   -7.7834    0.0000 C   0  0
    6.4117   -5.3193    0.0000 C   0  0
    5.6930   -5.7403    0.0000 C   0  0
    5.6930   -6.5513    0.0000 C   0  0
    5.6930   -8.2044    0.0000 C   0  0
    7.8337   -5.2475    0.0000 N   0  0
    5.0000   -6.9723    0.0000 C   0  0
    5.0000   -7.7834    0.0000 C   0  0
    5.6930   -9.0154    0.0000 N   0  0
    7.8645   -6.9415    0.0000 C   0  0
    7.1509   -8.2044    0.0000 C   0  0
    7.8337   -7.7834    0.0000 C   0  0
  2  1  1  0
  3  2  1  0
  4  1  2  0
  5  6  2  0
  6  7  1  0
  7  1  1  0
  8  4  1  0
  9  3  2  0
 10  7  2  0
 11 10  1  0
 12  8  1  0
 13  2  2  0
 14  4  1  0
 15 14  2  0
 11  8  2  0
  5  3  1  0
 15 13  1  0
M  END
> <COMPOUND_ID>
DNDI1416912

$$$$

  SciTegic04051205032D

 15 17  0  0  0  0            999 V2000
    7.4787   -6.4241    0.0000 C   0  0
    7.8855   -7.1423    0.0000 N   0  0
    6.6608   -6.4241    0.0000 C   0  0
    8.7076   -7.1423    0.0000 C   0  0
    6.2456   -7.1465    0.0000 N   0  0
    7.8897   -5.7141    0.0000 C   0  0
    6.2456   -5.7017    0.0000 C   0  0
    7.4787   -5.0000    0.0000 C   0  0
    6.6608   -5.0000    0.0000 C   0  0
    8.7076   -5.7141    0.0000 C   0  0
    9.1228   -7.8565    0.0000 N   0  0
    9.1228   -6.4241    0.0000 C   0  0
    5.4110   -7.1423    0.0000 C   0  0
    5.4277   -5.7017    0.0000 C   0  0
    5.0000   -6.4241    0.0000 C   0  0
  2  1  1  0
  3  1  2  0
  4  2  2  0
  5  3  1  0
  6  1  1  0
  7  3  1  0
  8  6  2  0
  9  8  1  0
 10  6  1  0
 11  4  1  0
 12  4  1  0
 13  5  2  0
 14  7  1  0
 15 13  1  0
 12 10  2  0
  9  7  2  0
 15 14  2  0
M  END
> <COMPOUND_ID>
DNDI1416913

$$$$

  SciTegic04051205032D

 15 17  0  0  0  0            999 V2000
    7.2262   -7.7434    0.0000 N   0  0
    7.6846   -7.0832    0.0000 C   0  0
    7.2262   -6.4230    0.0000 C   0  0
    6.4230   -7.4903    0.0000 C   0  0
    6.4230   -6.6651    0.0000 C   0  0
    8.8656   -6.2690    0.0000 N   0  0
    8.5135   -7.0245    0.0000 C   0  0
    7.5673   -5.6639    0.0000 C   0  0
    8.3998   -5.5868    0.0000 C   0  0
    5.7152   -6.2470    0.0000 C   0  0
    5.7152   -7.9047    0.0000 C   0  0
    8.9756   -7.6957    0.0000 C   0  0
    7.0942   -5.0000    0.0000 C   0  0
    5.0000   -6.6651    0.0000 C   0  0
    5.0000   -7.4903    0.0000 C   0  0
  2  1  1  0
  3  2  2  0
  4  1  1  0
  5  4  2  0
  6  7  2  0
  7  2  1  0
  8  3  1  0
  9  6  1  0
 10  5  1  0
 11  4  1  0
 12  7  1  0
 13  8  1  0
 14 15  1  0
 15 11  2  0
  3  5  1  0
 14 10  2  0
  8  9  2  0
M  END
> <COMPOUND_ID>
DNDI1416914

$$$$

  SciTegic04051205032D

 15 16  0  0  0  0            999 V2000
    6.4362   -5.6700    0.0000 N   0  0
    5.1650   -6.0823    0.0000 N   0  0
    5.1650   -5.2577    0.0000 N   0  0
    5.9415   -6.3331    0.0000 C   0  0
    5.9415   -5.0000    0.0000 C   0  0
    7.2575   -5.6700    0.0000 N   0  0
    7.6698   -6.3846    0.0000 C   0  0
    7.2575   -7.0993    0.0000 C   0  0
    6.4225   -8.5286    0.0000 C   0  0
    7.6698   -7.8209    0.0000 C   0  0
    6.4329   -7.0993    0.0000 C   0  0
    6.0102   -7.8140    0.0000 C   0  0
    7.2472   -8.5356    0.0000 C   0  0
    6.0102   -9.2365    0.0000 C   0  0
    5.1856   -9.2365    0.0000 C   0  0
  2  4  2  0
  3  5  2  0
  4  1  1  0
  5  1  1  0
  6  1  1  0
  7  6  2  0
  8  7  1  0
  9 12  2  0
 10  8  1  0
 11  8  2  0
 12 11  1  0
 13 10  2  0
 14  9  1  0
 15 14  1  0
  2  3  1  0
  9 13  1  0
M  END
> <COMPOUND_ID>
DNDI1416915

$$$$

  SciTegic04051205032D

 15 16  0  0  0  0            999 V2000
    7.1491   -6.6495    0.0000 N   0  0
    6.4307   -6.2324    0.0000 C   0  0
    7.8613   -6.2324    0.0000 C   0  0
    8.5860   -6.6495    0.0000 C   0  0
    5.7184   -6.6495    0.0000 C   0  0
    6.4307   -5.4149    0.0000 C   0  0
    9.2982   -6.2386    0.0000 C   0  0
   10.0146   -6.6536    0.0000 O   0  0
    7.1491   -5.0000    0.0000 C   0  0
    7.8613   -5.4149    0.0000 C   0  0
    5.7184   -7.4670    0.0000 O   0  0
    5.0000   -5.4149    0.0000 C   0  0
    5.0000   -6.2324    0.0000 C   0  0
    5.7184   -5.0000    0.0000 C   0  0
    9.2982   -5.4149    0.0000 C   0  0
  2  1  1  0
  3  1  2  0
  4  3  1  0
  5  2  1  0
  6  2  2  0
  7  4  1  0
  8  7  2  0
  9 10  2  0
 10  3  1  0
 11  5  1  0
 12 14  2  0
 13  5  2  0
 14  6  1  0
 15  7  1  0
  9  6  1  0
 13 12  1  0
M  END
> <COMPOUND_ID>
DNDI1416916

$$$$

  SciTegic04051205032D

 14 15  0  0  0  0            999 V2000
    7.1534   -7.7145    0.0000 N   0  0
    7.8679   -7.2982    0.0000 C   0  0
    7.8679   -6.5016    0.0000 C   0  0
    6.4339   -7.3188    0.0000 C   0  0
    7.1534   -6.0853    0.0000 C   0  0
    6.4339   -6.4810    0.0000 C   0  0
    7.1740   -5.2475    0.0000 S   0  0
    7.1740   -8.5523    0.0000 C   0  0
    8.6080   -7.7145    0.0000 C   0  0
    5.7195   -6.0853    0.0000 C   0  0
    5.7195   -7.7145    0.0000 C   0  0
    6.4596   -8.9686    0.0000 C   0  0
    5.0000   -6.5016    0.0000 C   0  0
    5.0000   -7.2982    0.0000 C   0  0
  2  1  1  0
  3  2  2  0
  4  1  1  0
  5  6  1  0
  6  4  2  0
  7  5  2  0
  8  1  1  0
  9  2  1  0
 10  6  1  0
 11  4  1  0
 12  8  1  0
 13 14  1  0
 14 11  2  0
  5  3  1  0
 13 10  2  0
M  END
> <COMPOUND_ID>
DNDI1416917

$$$$

  SciTegic04051205032D

 14 16  0  0  0  0            999 V2000
    7.1462   -7.4875    0.0000 C   0  0
    8.1512   -8.3628    0.0000 N   0  0
    6.4301   -7.0792    0.0000 C   0  0
    6.4301   -6.2438    0.0000 C   0  0
    8.4695   -7.6467    0.0000 N   0  0
    7.3305   -8.2958    0.0000 N   0  0
    7.8602   -7.0792    0.0000 C   0  0
    7.1462   -5.8334    0.0000 C   0  0
    5.7140   -7.4875    0.0000 N   0  0
    5.7140   -5.8334    0.0000 C   0  0
    7.8602   -6.2438    0.0000 C   0  0
    5.0000   -7.0792    0.0000 C   0  0
    5.0000   -6.2438    0.0000 C   0  0
    5.7140   -5.0000    0.0000 Cl  0  0
  2  6  1  0
  3  1  1  0
  4  3  2  0
  5  7  1  0
  6  1  1  0
  7  1  2  0
  8 11  2  0
  9  3  1  0
 10  4  1  0
 11  7  1  0
 12  9  2  0
 13 12  1  0
 14 10  1  0
  2  5  2  0
  8  4  1  0
 13 10  2  0
M  END
> <COMPOUND_ID>
DNDI1416918

$$$$

  SciTegic04051205032D

 14 14  0  0  0  0            999 V2000
    5.7082   -5.7541    0.0000 C   0  0
    5.7124   -6.5790    0.0000 C   0  0
    6.4249   -6.9915    0.0000 C   0  0
    7.1373   -6.5790    0.0000 C   0  0
    7.8581   -6.9873    0.0000 O   0  0
    7.1373   -5.7541    0.0000 N   0  0
    5.7082   -5.0000    0.0000 F   0  0
    6.3749   -5.2042    0.0000 F   0  0
    5.0375   -5.2125    0.0000 F   0  0
    7.8498   -5.3374    0.0000 O   0  0
    5.0000   -6.9915    0.0000 C   0  0
    6.4249   -7.8164    0.0000 C   0  0
    5.7124   -8.2289    0.0000 C   0  0
    5.0000   -7.8164    0.0000 C   0  0
  2  1  1  0
  3  2  2  0
  4  3  1  0
  5  4  2  0
  6  4  1  0
  7  1  1  0
  8  1  1  0
  9  1  1  0
 10  6  1  0
 11  2  1  0
 12  3  1  0
 13 14  1  0
 14 11  2  0
 12 13  2  0
M  END
> <COMPOUND_ID>
DNDI1416919

$$$$

  SciTegic04051205032D

 15 16  0  0  0  0            999 V2000
    7.4178   -6.4195    0.0000 C   0  3
    7.8137   -7.1292    0.0000 N   0  0
    7.9632   -5.8214    0.0000 O   0  0
    6.6196   -6.4195    0.0000 C   0  0
    8.6856   -6.1584    0.0000 N   0  0
    8.6119   -6.9418    0.0000 C   0  0
    6.2215   -5.7098    0.0000 C   0  0
    7.4662   -7.8390    0.0000 C   0  0
    6.1963   -7.1292    0.0000 C   0  0
    6.6196   -5.0000    0.0000 O   0  0
    9.2353   -7.4662    0.0000 C   0  0
    5.4002   -5.7098    0.0000 C   0  0
    9.2479   -8.5361    0.0000 C   0  0
    5.4002   -7.1292    0.0000 C   0  0
    5.0000   -6.4195    0.0000 C   0  0
  2  1  1  0
  3  1  1  0
  4  1  1  0
  5  3  1  0
  6  2  1  0
  7  4  2  0
  8  2  1  0
  9  4  1  0
 10  7  1  0
 11  6  1  0
 12  7  1  0
 13 11  1  0
 14  9  2  0
 15 14  1  0
  5  6  2  0
 15 12  2  0
M  CHG  1   1   1
M  END
> <COMPOUND_ID>
DNDI1416920

$$$$

  SciTegic04051205032D

 14 16  0  0  0  0            999 V2000
    7.8816   -7.0452    0.0000 N   0  0
    7.1590   -7.4623    0.0000 C   0  0
    7.8816   -6.2222    0.0000 N   0  0
    8.4927   -7.6229    0.0000 N   0  0
    8.1448   -8.3500    0.0000 N   0  0
    7.3419   -8.2720    0.0000 N   0  0
    7.1590   -5.8230    0.0000 C   0  0
    6.4453   -7.0452    0.0000 C   0  0
    6.4453   -6.2222    0.0000 C   0  0
    7.1590   -5.0000    0.0000 Cl  0  0
    5.7226   -7.4623    0.0000 C   0  0
    5.7226   -5.8230    0.0000 C   0  0
    5.0000   -7.0452    0.0000 C   0  0
    5.0000   -6.2222    0.0000 C   0  0
  2  1  1  0
  3  1  1  0
  4  1  1  0
  5  4  2  0
  6  2  2  0
  7  3  2  0
  8  2  1  0
  9  7  1  0
 10  7  1  0
 11  8  1  0
 12  9  1  0
 13 11  2  0
 14 12  2  0
  5  6  1  0
  9  8  2  0
 14 13  1  0
M  END
> <COMPOUND_ID>
DNDI1416921

$$$$

  SciTegic04051205032D

 15 15  0  0  0  0            999 V2000
   11.4190   -6.5217    0.0000 C   0  0
    9.9882   -6.5277    0.0000 N   0  0
   12.1299   -6.9253    0.0000 N   0  0
   10.7051   -6.9343    0.0000 N   0  0
   11.4190   -5.6903    0.0000 N   0  0
    9.2653   -6.9343    0.0000 C   0  0
    8.5514   -6.5036    0.0000 C   0  0
    7.1176   -5.6722    0.0000 C   0  0
    7.8315   -6.9193    0.0000 C   0  0
    8.5514   -5.6722    0.0000 C   0  0
    7.1176   -6.5036    0.0000 C   0  0
    7.8315   -5.2716    0.0000 C   0  0
    6.4097   -5.2475    0.0000 O   0  0
    5.7079   -5.6601    0.0000 C   0  0
    5.0000   -5.2625    0.0000 C   0  0
  2  4  1  0
  3  1  2  0
  4  1  1  0
  5  1  1  0
  6  2  2  0
  7  6  1  0
  8 12  2  0
  9  7  1  0
 10  7  2  0
 11  9  2  0
 12 10  1  0
 13  8  1  0
 14 13  1  0
 15 14  1  0
 11  8  1  0
M  END
> <COMPOUND_ID>
DNDI1416922

$$$$

  SciTegic04051205032D

 13 14  0  0  0  0            999 V2000
    6.6092   -7.6843    0.0000 C   0  0
    5.9519   -7.6013    0.0000 C   0  0
    7.0173   -6.9901    0.0000 C   0  0
    6.9136   -8.3830    0.0000 S   0  0
    8.2488   -6.2914    0.0000 C   0  0
    5.7697   -8.8811    0.0000 C   0  0
    7.8406   -6.9901    0.0000 C   0  0
    7.9490   -5.5950    0.0000 S   0  0
    6.4224   -8.9780    0.0000 C   0  0
    8.4333   -5.0000    0.0000 C   0  0
    8.9129   -6.3744    0.0000 C   0  0
    9.0905   -5.0969    0.0000 C   0  0
    5.6798   -6.8334    0.0000 N   0  0
  2  1  2  0
  3  1  1  0
  4  1  1  0
  5  7  1  0
  6  2  1  0
  7  3  2  0
  8  5  1  0
  9  4  1  0
 10  8  1  0
 11  5  2  0
 12 11  1  0
 13  2  1  0
  6  9  2  0
 12 10  2  0
M  END
> <COMPOUND_ID>
DNDI1416923

$$$$

  SciTegic04051205032D

 14 15  0  0  0  0            999 V2000
    7.8785   -7.2857    0.0000 C   0  0
    7.8785   -6.4766    0.0000 C   0  0
    7.1627   -7.7006    0.0000 C   0  0
    7.1627   -6.0669    0.0000 C   0  0
    6.4470   -6.4766    0.0000 C   0  0
    6.4470   -7.2857    0.0000 C   0  0
    7.1627   -5.2475    0.0000 O   0  0
    7.1627   -8.5149    0.0000 O   0  0
    8.6097   -7.7006    0.0000 N   0  0
    8.6097   -6.0669    0.0000 Cl  0  0
    5.7261   -6.0669    0.0000 C   0  0
    5.7261   -7.7006    0.0000 C   0  0
    5.0000   -6.4766    0.0000 C   0  0
    5.0000   -7.2857    0.0000 C   0  0
  2  1  2  0
  3  1  1  0
  4  2  1  0
  5  6  2  0
  6  3  1  0
  7  4  2  0
  8  3  2  0
  9  1  1  0
 10  2  1  0
 11  5  1  0
 12  6  1  0
 13 14  1  0
 14 12  2  0
  5  4  1  0
 13 11  2  0
M  END
> <COMPOUND_ID>
DNDI1416924

$$$$

  SciTegic04051205032D

 15 16  0  0  0  0            999 V2000
    6.3336   -7.8936    0.0000 C   0  0
    6.8048   -7.2163    0.0000 N   0  0
    5.2272   -8.7014    0.0000 N   0  0
    6.6155   -8.6930    0.0000 C   0  0
    5.9297   -9.1684    0.0000 N   0  0
    5.4796   -7.8936    0.0000 C   0  0
    7.6252   -7.2878    0.0000 N   0  0
    8.0879   -6.6232    0.0000 N   0  0
    9.0135   -5.2474    0.0000 O   0  0
    8.9126   -6.6484    0.0000 C   0  0
    7.7472   -5.8869    0.0000 C   0  0
    7.3812   -8.9454    0.0000 C   0  0
    5.0000   -7.2373    0.0000 C   0  0
    8.2058   -5.1970    0.0000 C   0  0
    9.3669   -5.9921    0.0000 C   0  0
  2  1  1  0
  3  6  2  0
  4  1  2  0
  5  4  1  0
  6  1  1  0
  7  2  2  0
  8  7  1  0
  9 14  1  0
 10  8  1  0
 11  8  1  0
 12  4  1  0
 13  6  1  0
 14 11  1  0
 15 10  1  0
  5  3  1  0
 15  9  1  0
M  END
> <COMPOUND_ID>
DNDI1416925

$$$$

  SciTegic04051205032D

 15 18  0  0  0  0            999 V2000
    6.4205   -7.7042    0.0000 C   0  0
    5.8102   -7.1819    0.0000 N   0  0
    7.1885   -7.4110    0.0000 N   0  0
    7.1830   -6.9949    0.0000 C   0  0
    5.8157   -6.4066    0.0000 C   0  0  1  0  0  0
    6.4205   -8.3879    0.0000 N   0  0
    5.1650   -7.7042    0.0000 N   0  0
    5.1650   -8.3879    0.0000 N   0  0
    6.2739   -6.9949    0.0000 C   0  0
    7.6522   -6.4066    0.0000 C   0  0  1  0  0  0
    6.2739   -5.7871    0.0000 C   0  0
    7.1830   -5.7871    0.0000 O   0  0
    7.6522   -5.2475    0.0000 O   0  0
    6.2739   -5.2475    0.0000 C   0  0
    7.8099   -6.8703    0.0000 O   0  0
  2  1  1  0
  3  1  1  0
  4  3  1  0
  5  2  1  0
  6  1  2  0
  7  2  1  0
  8  6  1  0
  9  4  1  0
 10  4  1  1
 11  5  1  0
 12 10  1  0
 13 10  1  0
 14 11  1  0
 15  4  1  0
  8  7  2  0
  5  9  1  1
 11 12  1  0
 13 14  1  0
M  END
> <COMPOUND_ID>
DNDI1416926

$$$$

  SciTegic04051205032D

 16 17  0  0  0  0            999 V2000
    7.0196   -5.7980    0.0000 C   0  0
    6.2276   -6.0342    0.0000 N   0  0
    7.6242   -6.3742    0.0000 C   0  0
    6.0118   -6.8261    0.0000 C   0  0
    6.6165   -7.4308    0.0000 N   0  0
    7.2129   -5.0000    0.0000 O   0  0
    8.3937   -6.1319    0.0000 C   0  0
    7.4288   -7.1600    0.0000 C   0  0
    6.3722   -8.2227    0.0000 C   0  0
    5.2199   -7.0419    0.0000 C   0  0
    8.5871   -5.2931    0.0000 C   0  0
    8.9963   -6.6816    0.0000 C   0  0
    8.0334   -7.7157    0.0000 C   0  0
    5.5823   -8.4161    0.0000 C   0  0
    5.0000   -7.8399    0.0000 C   0  0
    8.8253   -7.4796    0.0000 C   0  0
  2  1  1  0
  3  1  1  0
  4  2  1  0
  5  4  1  0
  6  1  2  0
  7  3  2  0
  8  3  1  0
  9  5  2  0
 10  4  2  0
 11  7  1  0
 12  7  1  0
 13  8  2  0
 14  9  1  0
 15 10  1  0
 16 13  1  0
 14 15  2  0
 16 12  2  0
M  END
> <COMPOUND_ID>
DNDI1416927

$$$$

  SciTegic04051205032D

 16 18  0  0  0  0            999 V2000
    7.8553   -6.2301    0.0000 C   0  0
    7.1440   -5.8178    0.0000 C   0  0
    7.1440   -7.4704    0.0000 N   0  0
    7.8553   -7.0581    0.0000 C   0  0
    6.4293   -6.2301    0.0000 C   0  0
    6.4293   -7.0581    0.0000 C   0  0
    8.5665   -5.8178    0.0000 C   0  0
    8.5665   -7.4704    0.0000 C   0  0
    7.1440   -5.0000    0.0000 N   0  0
    9.2846   -6.2301    0.0000 C   0  0
    9.2846   -7.0581    0.0000 C   0  0
    5.7112   -5.8178    0.0000 C   0  0
    5.7112   -7.4704    0.0000 C   0  0
    9.9993   -5.8178    0.0000 C   0  0
    5.0000   -6.2301    0.0000 C   0  0
    5.0000   -7.0581    0.0000 C   0  0
  2  1  2  0
  3  4  2  0
  4  1  1  0
  5  2  1  0
  6  3  1  0
  7  1  1  0
  8  4  1  0
  9  2  1  0
 10  7  1  0
 11 10  1  0
 12  5  1  0
 13  6  1  0
 14 10  1  0
 15 12  2  0
 16 13  2  0
 11  8  1  0
  5  6  2  0
 15 16  1  0
M  END
> <COMPOUND_ID>
DNDI1416928

$$$$

  SciTegic04051205032D

 14 16  0  0  0  0            999 V2000
    7.0442   -7.0755    0.0000 C   0  0
    6.3249   -7.4858    0.0000 C   0  0
    6.1536   -8.2870    0.0000 N   0  3
    7.0442   -6.2453    0.0000 C   0  0
    5.6057   -7.0634    0.0000 C   0  0
    5.3306   -8.3666    0.0000 O   0  0
    5.0000   -7.6233    0.0000 N   0  0
    6.3249   -5.8350    0.0000 C   0  0
    5.6057   -6.2453    0.0000 C   0  0
    7.8285   -7.3265    0.0000 N   0  0
    7.8285   -5.9943    0.0000 N   0  0
    8.3015   -6.6701    0.0000 O   0  0
    6.7014   -8.9145    0.0000 O   0  5
    6.3249   -5.0000    0.0000 Cl  0  0
  2  1  1  0
  3  2  2  0
  4  1  1  0
  5  2  1  0
  6  3  1  0
  7  5  2  0
  8  4  1  0
  9  8  2  0
 10  1  2  0
 11  4  2  0
 12 10  1  0
 13  3  1  0
 14  8  1  0
 12 11  1  0
  9  5  1  0
  6  7  1  0
M  CHG  2   3   1  13  -1
M  END
> <COMPOUND_ID>
DNDI1416929

$$$$

  SciTegic04051205032D

 16 17  0  0  0  0            999 V2000
    5.7307   -7.4803    0.0000 C   0  0
    5.7307   -8.2912    0.0000 C   0  0
    6.4436   -7.0615    0.0000 C   0  0
    6.4436   -6.2238    0.0000 C   0  0
    5.7307   -5.8317    0.0000 C   0  0
    5.0000   -7.0615    0.0000 C   0  0
    5.0178   -8.7070    0.0000 O   0  0
    6.4436   -8.7070    0.0000 C   0  0
    5.0178   -6.2238    0.0000 C   0  0
    7.1565   -5.8139    0.0000 O   0  0
    5.7307   -5.0000    0.0000 O   0  0
    7.1565   -8.2912    0.0000 C   0  0
    6.4436   -9.5268    0.0000 C   0  0
    7.8693   -8.7070    0.0000 C   0  0
    7.1565   -9.9397    0.0000 C   0  0
    7.8693   -9.5268    0.0000 C   0  0
  2  1  1  0
  3  1  1  0
  4  3  2  0
  5  9  2  0
  6  1  2  0
  7  2  2  0
  8  2  1  0
  9  6  1  0
 10  4  1  0
 11  5  1  0
 12  8  1  0
 13  8  2  0
 14 12  2  0
 15 13  1  0
 16 15  2  0
  4  5  1  0
 14 16  1  0
M  END
> <COMPOUND_ID>
DNDI1416930

$$$$

  SciTegic04051205032D

 16 18  0  0  0  0            999 V2000
    6.6506   -7.9745    0.0000 N   0  0
    6.2379   -8.6863    0.0000 C   0  0
    7.8885   -5.8322    0.0000 C   0  0
    8.6003   -5.4195    0.0000 C   0  0
    7.8885   -5.0000    0.0000 C   0  0
    7.4758   -6.5474    0.0000 N   0  0
    6.6506   -9.4015    0.0000 C   0  0
    5.4126   -8.6863    0.0000 C   0  0
    6.2379   -7.2592    0.0000 C   0  0
    5.0000   -7.9745    0.0000 C   0  0
    6.6506   -6.5474    0.0000 C   0  0
    5.4126   -7.2592    0.0000 C   0  0
    7.4758   -9.4015    0.0000 O   0  0
    5.4126  -10.1133    0.0000 C   0  0
    6.2379  -10.1133    0.0000 C   0  0
    5.0000   -9.4015    0.0000 C   0  0
  2  1  1  0
  3  6  1  0
  4  3  1  0
  5  3  1  0
  6 11  1  0
  7  2  2  0
  8  2  1  0
  9  1  2  0
 10 12  2  0
 11  9  1  0
 12  9  1  0
 13  7  1  0
 14 16  1  0
 15  7  1  0
 16  8  2  0
 10  8  1  0
 15 14  2  0
  4  5  1  0
M  END
> <COMPOUND_ID>
DNDI1416931

$$$$

  SciTegic04051205032D

 16 18  0  0  0  0            999 V2000
    8.5041   -6.1512    0.0000 C   0  0
    7.8433   -6.5243    0.0000 N   0  0
    8.5041   -5.3997    0.0000 C   0  0
    7.1850   -5.3997    0.0000 C   0  0
    7.1850   -6.1512    0.0000 C   0  0
    9.1623   -6.5243    0.0000 C   0  0
    6.5269   -5.0214    0.0000 C   0  0
    6.5269   -6.5243    0.0000 C   0  0
    9.1623   -5.0214    0.0000 C   0  0
    5.8687   -5.3997    0.0000 C   0  0
    5.8687   -6.1512    0.0000 C   0  0
   10.4973   -7.4916    0.0000 N   0  0
    9.5487   -7.4916    0.0000 C   0  0
    9.8205   -5.3997    0.0000 C   0  0
    9.8205   -6.1512    0.0000 C   0  0
    5.0000   -5.0000    0.0000 C   0  0
  2  1  1  0
  3  1  2  0
  4  3  1  0
  5  2  1  0
  6  1  1  0
  7  4  1  0
  8  5  1  0
  9  3  1  0
 10  7  2  0
 11  8  2  0
 12 13  1  0
 13  6  1  0
 14 15  1  0
 15  6  1  0
 16 10  1  0
  5  4  2  0
 14  9  1  0
 11 10  1  0
M  END
> <COMPOUND_ID>
DNDI1416932

$$$$

  SciTegic04051205032D

 15 17  0  0  0  0            999 V2000
    7.1342   -7.4868    0.0000 C   0  0
    7.3336   -8.2914    0.0000 N   0  0
    7.8319   -7.0808    0.0000 C   0  0
    8.4688   -7.6375    0.0000 S   0  0
    8.1382   -8.3643    0.0000 C   0  0
    6.4317   -7.0808    0.0000 C   0  0
    7.8319   -6.2301    0.0000 C   0  0
    7.1342   -5.8338    0.0000 C   0  0
    6.4317   -6.2301    0.0000 C   0  0
    7.1610   -5.0000    0.0000 O   0  0
    5.7098   -7.4868    0.0000 C   0  0
    8.5660   -9.0960    0.0000 C   0  0
    5.7098   -5.8338    0.0000 C   0  0
    5.0000   -7.0808    0.0000 C   0  0
    5.0000   -6.2301    0.0000 C   0  0
  2  1  1  0
  3  1  1  0
  4  3  1  0
  5  2  2  0
  6  1  2  0
  7  3  2  0
  8  7  1  0
  9  6  1  0
 10  8  1  0
 11  6  1  0
 12  5  1  0
 13  9  1  0
 14 11  2  0
 15 14  1  0
  5  4  1  0
  8  9  2  0
 15 13  2  0
M  END
> <COMPOUND_ID>
DNDI1416933

$$$$

  SciTegic04051205032D

 16 17  0  0  0  0            999 V2000
    5.8776   -7.8973    0.0000 N   0  0
    5.8776   -8.7451    0.0000 C   0  0
    6.5805   -7.4697    0.0000 C   0  0
    7.2931   -8.7451    0.0000 N   0  0
    6.5805   -9.1481    0.0000 N   0  0
    7.2931   -7.8973    0.0000 C   0  0
    7.2955   -6.2361    0.0000 N   0  0
    6.5805   -6.6440    0.0000 N   0  0
    5.1650   -9.1653    0.0000 O   0  0
    8.0082   -6.6440    0.0000 C   0  0
    9.4310   -6.6440    0.0000 N   0  0
    8.7184   -6.2312    0.0000 C   0  0
   10.1412   -6.2386    0.0000 C   0  0
    8.7184   -5.4178    0.0000 C   0  0
   10.1412   -5.4129    0.0000 C   0  0
    9.4261   -5.0000    0.0000 C   0  0
  2  1  1  0
  3  1  2  0
  4  6  2  0
  5  2  1  0
  6  3  1  0
  7  8  1  0
  8  3  1  0
  9  2  2  0
 10  7  2  0
 11 12  2  0
 12 10  1  0
 13 11  1  0
 14 12  1  0
 15 16  1  0
 16 14  2  0
  5  4  1  0
 13 15  2  0
M  END
> <COMPOUND_ID>
DNDI1416934

$$$$

  SciTegic04051205032D

 16 17  0  0  0  0            999 V2000
    7.8479   -7.0905    0.0000 C   0  0
    8.5685   -6.6802    0.0000 C   0  0
    7.1476   -6.6802    0.0000 C   0  0
    7.1476   -5.8574    0.0000 C   0  0
    8.5685   -5.8574    0.0000 C   0  0
    6.4311   -7.0905    0.0000 C   0  0
    7.8479   -5.4410    0.0000 C   0  0
    7.8479   -7.9112    0.0000 O   0  0
    6.4311   -5.4410    0.0000 C   0  0
    5.7166   -6.6802    0.0000 C   0  0
    9.2789   -7.0905    0.0000 O   0  0
    5.7166   -5.8574    0.0000 C   0  0
    9.2789   -6.2576    0.0000 C   0  0
    8.5685   -5.0000    0.0000 C   0  0
    6.4311   -7.9112    0.0000 C   0  0
    5.0000   -5.4410    0.0000 C   0  0
  2  1  1  0
  3  1  1  0
  4  3  2  0
  5  2  1  0
  6  3  1  0
  7  4  1  0
  8  1  2  0
  9  4  1  0
 10  6  2  0
 11  2  2  0
 12 10  1  0
 13  5  1  0
 14  5  1  0
 15  6  1  0
 16 12  1  0
  5  7  1  0
  9 12  2  0
M  END
> <COMPOUND_ID>
DNDI1416935

$$$$

  SciTegic04051205032D

 16 17  0  0  0  0            999 V2000
    7.1309   -6.6547    0.0000 N   0  0
    6.4166   -6.2410    0.0000 C   0  0
    7.8332   -6.2410    0.0000 C   0  0
    5.7023   -6.6547    0.0000 C   0  0
    6.4166   -5.4137    0.0000 C   0  0
    7.1309   -5.0000    0.0000 C   0  0
    8.5740   -6.6667    0.0000 N   0  0
    7.8332   -5.4137    0.0000 C   0  0
    5.6758   -7.4845    0.0000 O   0  0
    5.0000   -5.4137    0.0000 C   0  0
    5.0000   -6.2410    0.0000 C   0  0
    5.7023   -5.0000    0.0000 C   0  0
    8.5861   -7.4965    0.0000 C   0  0
    9.3004   -7.9102    0.0000 C   0  0
    9.3004   -8.7256    0.0000 C   0  0
   10.0147   -9.1392    0.0000 C   0  0
  2  1  2  0
  3  1  1  0
  4  2  1  0
  5  2  1  0
  6  8  1  0
  7  3  1  0
  8  3  2  0
  9  4  1  0
 10 11  1  0
 11  4  2  0
 12  5  1  0
 13  7  1  0
 14 13  1  0
 15 14  1  0
 16 15  1  0
  6  5  2  0
 10 12  2  0
M  END
> <COMPOUND_ID>
DNDI1416936

$$$$

  SciTegic04051205032D

 16 17  0  0  0  0            999 V2000
    7.4018   -6.3699    0.0000 C   0  0
    6.0052   -6.0230    0.0000 N   0  0
    6.7991   -5.8050    0.0000 C   0  0
    5.8006   -6.8236    0.0000 C   0  0
    6.4055   -7.4062    0.0000 N   0  0
    7.2016   -7.1660    0.0000 C   0  0
    8.1913   -6.1519    0.0000 C   0  0
    8.7828   -6.7190    0.0000 C   0  0
    9.5745   -6.4966    0.0000 C   0  0
    7.7887   -7.7420    0.0000 C   0  0
    8.5827   -7.5174    0.0000 C   0  0
    7.0015   -5.0000    0.0000 N   0  0
    5.0000   -7.0482    0.0000 N   0  0
    9.7502   -7.2950    0.0000 C   0  0
    9.3766   -5.7249    0.0000 C   0  0
   10.4040   -6.3120    0.0000 C   0  0
  2  3  2  0
  3  1  1  0
  4  2  1  0
  5  6  1  0
  6  1  2  0
  7  1  1  0
  8  7  1  0
  9  8  1  0
 10  6  1  0
 11  8  1  0
 12  3  1  0
 13  4  1  0
 14  9  1  0
 15  9  1  0
 16  9  1  0
  4  5  2  0
 11 10  1  0
M  END
> <COMPOUND_ID>
DNDI1416937

$$$$

  SciTegic04051205032D

 15 16  0  0  0  0            999 V2000
    7.1560   -6.2303    0.0000 C   0  0
    7.1560   -7.0505    0.0000 C   0  0
    7.8766   -5.8231    0.0000 C   0  0
    6.4354   -5.8231    0.0000 C   0  0
    7.8766   -7.4592    0.0000 N   0  0
    6.4354   -7.4592    0.0000 C   0  0
    5.7162   -6.2303    0.0000 C   0  0
    8.5972   -6.2303    0.0000 C   0  0
    5.7162   -7.0505    0.0000 C   0  0
    8.5972   -7.0505    0.0000 C   0  0
    7.8766   -5.0000    0.0000 Cl  0  0
    6.4354   -5.0000    0.0000 N   0  0
    6.4354   -8.2823    0.0000 C   0  0
    5.0000   -5.8290    0.0000 C   0  0
    9.3164   -7.4592    0.0000 C   0  0
  2  1  1  0
  3  1  2  0
  4  1  1  0
  5  2  2  0
  6  2  1  0
  7  4  2  0
  8  3  1  0
  9  7  1  0
 10  8  2  0
 11  3  1  0
 12  4  1  0
 13  6  1  0
 14  7  1  0
 15 10  1  0
 10  5  1  0
  9  6  2  0
M  END
> <COMPOUND_ID>
DNDI1416938

$$$$

  SciTegic04051205032D

 15 17  0  0  0  0            999 V2000
    8.4498   -6.1784    0.0000 C   0  0
    7.7622   -6.5577    0.0000 N   0  0
    8.4498   -5.3936    0.0000 C   0  0
    7.0770   -5.3936    0.0000 C   0  0
    7.0770   -6.1784    0.0000 C   0  0
    9.1540   -6.5577    0.0000 C   0  0
    6.3918   -5.0000    0.0000 C   0  0
    6.3918   -6.5577    0.0000 C   0  0
    5.7066   -5.3936    0.0000 C   0  0
    9.1540   -5.0000    0.0000 C   0  0
    9.1540   -7.3710    0.0000 N   0  0
    5.7066   -6.1784    0.0000 C   0  0
    5.0000   -5.0095    0.0000 Cl  0  0
    9.8393   -5.3936    0.0000 C   0  0
    9.8393   -6.1784    0.0000 C   0  0
  2  1  1  0
  3  1  2  0
  4  3  1  0
  5  2  1  0
  6  1  1  0
  7  4  1  0
  8  5  1  0
  9  7  2  0
 10  3  1  0
 11  6  1  0
 12  8  2  0
 13  9  1  0
 14 15  1  0
 15  6  1  0
  5  4  2  0
 14 10  1  0
 12  9  1  0
M  END
> <COMPOUND_ID>
DNDI1416939

$$$$

  SciTegic04051205032D

 16 17  0  0  0  0            999 V2000
    8.0969   -7.9126    0.0000 C   0  0
    8.5938   -8.5953    0.0000 C   0  0
    7.2600   -8.1951    0.0000 C   0  0
    8.0969   -9.2544    0.0000 N   0  0
    8.2408   -7.1280    0.0000 N   0  0
    7.2600   -9.0295    0.0000 C   0  0
    7.6131   -6.5814    0.0000 N   0  0
    7.7595   -5.7784    0.0000 C   0  0
    6.6218   -7.8106    0.0000 C   0  0
    9.4569   -8.5953    0.0000 O   0  0
    6.6218   -9.4113    0.0000 C   0  0
    7.1344   -5.2475    0.0000 N   0  0
    8.5311   -5.5065    0.0000 N   0  0
    5.8764   -8.1951    0.0000 C   0  0
    5.8764   -9.0295    0.0000 C   0  0
    5.1650   -7.7793    0.0000 F   0  0
  2  1  1  0
  3  1  1  0
  4  2  1  0
  5  1  2  0
  6  3  2  0
  7  5  1  0
  8  7  2  0
  9  3  1  0
 10  2  2  0
 11  6  1  0
 12  8  1  0
 13  8  1  0
 14  9  2  0
 15 14  1  0
 16 14  1  0
  4  6  1  0
 11 15  2  0
M  END
> <COMPOUND_ID>
DNDI1416940

$$$$

  SciTegic04051205032D

 17 19  0  0  0  0            999 V2000
    7.2019   -6.9200    0.0000 C   0  0
    7.6861   -7.5827    0.0000 C   0  0
    7.2019   -8.2454    0.0000 N   0  0
    6.4358   -7.1761    0.0000 C   0  0
    6.4358   -7.9986    0.0000 C   0  0
    7.4698   -6.1327    0.0000 C   0  0
    8.5132   -7.5827    0.0000 O   0  0
    8.8375   -6.5769    0.0000 N   0  0
    8.2806   -5.9635    0.0000 C   0  0
    5.7144   -6.7555    0.0000 C   0  0
    5.7144   -8.4052    0.0000 C   0  0
    9.6436   -6.3983    0.0000 C   0  0
    8.5273   -5.1763    0.0000 C   0  0
    5.0000   -7.1620    0.0000 C   0  0
    5.0000   -7.9986    0.0000 C   0  0
    9.8998   -5.6157    0.0000 C   0  0
    9.3451   -5.0000    0.0000 C   0  0
  2  1  1  0
  3  2  1  0
  4  1  1  0
  5  4  2  0
  6  1  2  0
  7  2  2  0
  8  9  2  0
  9  6  1  0
 10  4  1  0
 11  5  1  0
 12  8  1  0
 13  9  1  0
 14 10  2  0
 15 14  1  0
 16 12  2  0
 17 13  2  0
  3  5  1  0
 16 17  1  0
 15 11  2  0
M  END
> <COMPOUND_ID>
DNDI1416941

$$$$

  SciTegic04051205032D

 15 15  0  0  0  0            999 V2000
    9.1735   -7.3462    0.0000 C   0  0
    7.9557   -6.8102    0.0000 N   0  0
    8.7543   -6.6325    0.0000 C   0  0
    7.8681   -7.6168    0.0000 C   0  0
    8.6190   -7.9485    0.0000 S   0  0
    9.9908   -7.4285    0.0000 C   0  0
   10.1234   -6.0142    0.0000 C   0  0
   10.4736   -6.7625    0.0000 N   0  0
    9.7864   -5.2475    0.0000 N   0  0
    9.0913   -5.8604    0.0000 N   0  0
    7.1571   -8.0281    0.0000 N   0  0
   10.3436   -8.1793    0.0000 N   0  0
    5.7190   -8.0440    0.0000 C   0  0
    5.0000   -7.6328    0.0000 C   0  0
    6.4407   -7.6328    0.0000 C   0  0
  2  3  1  0
  3  1  2  0
  4  5  1  0
  5  1  1  0
  6  1  1  0
  7  8  1  0
  8  6  2  0
  9  7  3  0
 10  3  1  0
 11  4  1  0
 12  6  1  0
 13 15  1  0
 14 13  2  0
 15 11  1  0
  2  4  2  0
M  END
> <COMPOUND_ID>
DNDI1416942

$$$$

  SciTegic04051205032D

 15 16  0  0  0  0            999 V2000
    7.2966   -6.7734    0.0000 C   0  0
    6.5891   -7.1854    0.0000 C   0  0
    7.9952   -7.1988    0.0000 N   0  0
    5.8770   -6.7734    0.0000 C   0  0
    6.5891   -5.5329    0.0000 C   0  0
    7.2966   -5.9405    0.0000 C   0  0
    5.1650   -7.1854    0.0000 S   0  0
    5.8770   -5.9628    0.0000 C   0  0
    8.7072   -6.8092    0.0000 C   0  0
    7.9952   -8.0228    0.0000 C   0  0
    5.8636   -5.0000    0.0000 C   0  0
    7.3280   -5.2105    0.0000 C   0  0
    8.6938   -8.4393    0.0000 C   0  0
    9.4238   -7.2302    0.0000 C   0  0
    9.4103   -8.0586    0.0000 C   0  0
  2  1  2  0
  3  1  1  0
  4  2  1  0
  5  6  1  0
  6  1  1  0
  7  4  2  0
  8  5  1  0
  9  3  1  0
 10  3  1  0
 11  5  1  0
 12  5  1  0
 13 10  1  0
 14  9  1  0
 15 13  1  0
  4  8  1  0
 14 15  1  0
M  END
> <COMPOUND_ID>
DNDI1416943

$$$$

  SciTegic04051205032D

 17 19  0  0  0  0            999 V2000
    7.8582   -6.5033    0.0000 C   0  0
    7.1541   -6.0862    0.0000 N   0  0
    7.8582   -7.3111    0.0000 C   0  0
    7.1541   -7.7282    0.0000 N   0  0
    6.4324   -7.3111    0.0000 C   0  0
    6.4324   -6.5033    0.0000 C   0  0
    8.5843   -6.0862    0.0000 C   0  0
    8.5843   -7.7282    0.0000 C   0  0
    9.3060   -7.3111    0.0000 C   0  0
    9.3060   -6.5033    0.0000 C   0  0
    8.5843   -5.2475    0.0000 O   0  0
    7.1541   -8.5669    0.0000 C   0  0
    5.7217   -7.7282    0.0000 C   0  0
    5.7217   -6.0862    0.0000 C   0  0
    7.8582   -8.9576    0.0000 C   0  0
    5.0000   -7.3111    0.0000 C   0  0
    5.0000   -6.5033    0.0000 C   0  0
  2  1  2  0
  3  1  1  0
  4  3  1  0
  5  6  2  0
  6  2  1  0
  7  1  1  0
  8  3  2  0
  9 10  2  0
 10  7  1  0
 11  7  2  0
 12  4  1  0
 13  5  1  0
 14  6  1  0
 15 12  1  0
 16 17  1  0
 17 14  2  0
  9  8  1  0
  5  4  1  0
 16 13  2  0
M  END
> <COMPOUND_ID>
DNDI1416944

$$$$

  SciTegic04051205032D

 17 19  0  0  0  0            999 V2000
    7.6776   -8.6051    0.0000 C   0  0
    6.4113   -8.5084    0.0000 C   0  0
    7.6776   -9.2425    0.0000 C   0  0
    7.0459   -9.6608    0.0000 O   0  0
    8.4288   -8.2893    0.0000 N   0  0
    6.4113   -9.3279    0.0000 C   0  0
    8.5198   -7.4698    0.0000 C   0  0
    8.6791   -5.8195    0.0000 C   0  0
    8.7218   -5.0000    0.0000 N   0  0
    9.2681   -7.1255    0.0000 C   0  0
    7.8654   -6.9889    0.0000 C   0  0
    9.3563   -6.3060    0.0000 C   0  0
    7.9450   -6.1695    0.0000 C   0  0
    5.7028   -8.0958    0.0000 C   0  0
    5.7028   -9.7348    0.0000 C   0  0
    5.0000   -8.5084    0.0000 C   0  0
    5.0000   -9.3279    0.0000 C   0  0
  2  1  1  0
  3  1  2  0
  4  3  1  0
  5  1  1  0
  6  2  2  0
  7  5  1  0
  8 13  1  0
  9  8  1  0
 10  7  2  0
 11  7  1  0
 12 10  1  0
 13 11  2  0
 14  2  1  0
 15  6  1  0
 16 14  2  0
 17 16  1  0
  4  6  1  0
  8 12  2  0
 17 15  2  0
M  END
> <COMPOUND_ID>
DNDI1416945

$$$$

  SciTegic04051205032D

 14 14  0  0  0  0            999 V2000
    7.2971   -7.4935    0.0000 N   0  0
    8.7258   -7.5032    0.0000 C   0  0
    7.2971   -6.6615    0.0000 C   0  0
    8.0102   -7.9107    0.0000 N   0  0
    6.5742   -6.2273    0.0000 C   0  0
    5.8684   -6.6421    0.0000 N   0  0
    8.7427   -6.6421    0.0000 S   0  0
    5.1650   -5.3978    0.0000 N   0  0
    5.1650   -6.2273    0.0000 C   0  0
    9.3661   -7.9713    0.0000 S   0  0
    6.5742   -5.3978    0.0000 C   0  0
    5.8684   -5.0000    0.0000 C   0  0
    8.0175   -6.2273    0.0000 C   0  0
   10.1156   -7.6463    0.0000 C   0  0
  2  4  1  0
  3  1  2  0
  4  1  1  0
  5  3  1  0
  6  5  1  0
  7  2  2  0
  8  9  1  0
  9  6  2  0
 10  2  1  0
 11  5  2  0
 12 11  1  0
 13  3  1  0
 14 10  1  0
  8 12  2  0
M  END
> <COMPOUND_ID>
DNDI1416946

$$$$

  SciTegic04051205032D

 14 15  0  0  0  0            999 V2000
    7.6750   -6.4591    0.0000 C   0  0
    7.2270   -7.1246    0.0000 S   0  0
    7.1971   -5.7935    0.0000 C   0  0
    6.4292   -6.0623    0.0000 C   0  0
    8.5282   -6.4591    0.0000 C   0  0
    6.4335   -6.8814    0.0000 C   0  0
    8.9549   -5.7423    0.0000 O   0  0
    8.9378   -7.1886    0.0000 N   0  0
    7.4531   -5.0000    0.0000 Cl  0  0
    5.7167   -5.6527    0.0000 C   0  0
    9.7569   -7.2099    0.0000 O   0  0
    5.7423   -7.2910    0.0000 C   0  0
    5.0000   -6.0708    0.0000 C   0  0
    5.0000   -6.8814    0.0000 C   0  0
  2  1  1  0
  3  1  2  0
  4  3  1  0
  5  1  1  0
  6  2  1  0
  7  5  2  0
  8  5  1  0
  9  3  1  0
 10  4  1  0
 11  8  1  0
 12  6  1  0
 13 10  2  0
 14 12  2  0
  4  6  2  0
 13 14  1  0
M  END
> <COMPOUND_ID>
DNDI1416947

$$$$

  SciTegic04051205032D

 17 19  0  0  0  0            999 V2000
    6.2655   -7.4723    0.0000 C   0  0
    6.2655   -6.6408    0.0000 C   0  0
    6.9756   -6.2251    0.0000 N   0  0
    6.9756   -7.8880    0.0000 C   0  0
    5.0000   -7.0492    0.0000 N   0  0
    5.4598   -7.7114    0.0000 N   0  0
    7.6930   -7.4723    0.0000 C   0  0
    7.6930   -6.6408    0.0000 C   0  0
    5.4598   -6.3869    0.0000 C   0  0
    8.4104   -6.2251    0.0000 C   0  0
    6.9756   -8.7084    0.0000 N   0  0
    8.4104   -7.8880    0.0000 C   0  0
    5.1656   -8.4766    0.0000 C   0  0
    8.4104   -5.3973    0.0000 O   0  0
    9.1241   -7.4723    0.0000 C   0  0
    9.1241   -6.6408    0.0000 C   0  0
    9.1057   -5.0000    0.0000 C   0  0
  2  1  2  0
  3  2  1  0
  4  1  1  0
  5  6  1  0
  6  1  1  0
  7  4  2  0
  8  7  1  0
  9  2  1  0
 10  8  1  0
 11  4  1  0
 12  7  1  0
 13  6  1  0
 14 10  1  0
 15 12  2  0
 16 15  1  0
 17 14  1  0
  9  5  2  0
  3  8  2  0
 16 10  2  0
M  END
> <COMPOUND_ID>
DNDI1416948

$$$$

  SciTegic04051205032D

 17 18  0  0  0  0            999 V2000
    5.6202  -10.3835    0.0000 N   0  0
    5.3473  -11.6900    0.0000 N   0  0
    6.1412  -11.5908    0.0000 N   0  0
    5.0000  -10.9457    0.0000 C   0  0
    6.3149  -10.7969    0.0000 C   0  0
    5.5954   -9.5565    0.0000 N   0  0
    6.3149   -5.8352    0.0000 C   0  0
    6.3397   -6.6538    0.0000 C   0  0
    6.3149   -9.1347    0.0000 C   0  0
    7.0343   -7.0756    0.0000 C   0  0
    5.5954   -7.0756    0.0000 C   0  0
    6.3149   -8.3160    0.0000 C   0  0
    7.0343   -7.9026    0.0000 C   0  0
    5.5954   -7.9026    0.0000 C   0  0
    6.3397   -5.0000    0.0000 C   0  0
    5.4962   -5.8187    0.0000 C   0  0
    7.1500   -5.8187    0.0000 C   0  0
  2  4  2  0
  3  5  2  0
  4  1  1  0
  5  1  1  0
  6  1  1  0
  7  8  1  0
  8 11  2  0
  9  6  2  0
 10 13  2  0
 11 14  1  0
 12  9  1  0
 13 12  1  0
 14 12  2  0
 15  7  1  0
 16  7  1  0
 17  7  1  0
  3  2  1  0
 10  8  1  0
M  END
> <COMPOUND_ID>
DNDI1416949

$$$$

  SciTegic04051205032D

 17 18  0  0  0  0            999 V2000
    7.2453   -7.7128    0.0000 N   0  0
    7.8469   -6.4165    0.0000 C   0  0
    7.9226   -7.2383    0.0000 C   0  0
    7.0974   -6.0658    0.0000 C   0  0
    6.4235   -6.5437    0.0000 C   0  0
    6.4957   -7.3655    0.0000 C   0  0
    7.0252   -5.2475    0.0000 N   0  0
    7.3175   -8.5345    0.0000 C   0  0
    8.5208   -5.9420    0.0000 C   0  0
    8.6687   -7.5855    0.0000 C   0  0
    5.6774   -6.1965    0.0000 C   0  0
    5.8218   -7.8399    0.0000 C   0  0
    9.3426   -7.1110    0.0000 C   0  0
    9.2704   -6.2893    0.0000 C   0  0
    5.0000   -6.6710    0.0000 C   0  0
    5.0722   -7.4892    0.0000 C   0  0
   10.0922   -7.4583    0.0000 C   0  0
  2  3  2  0
  3  1  1  0
  4  2  1  0
  5  6  2  0
  6  1  1  0
  7  4  2  0
  8  1  1  0
  9  2  1  0
 10  3  1  0
 11  5  1  0
 12  6  1  0
 13 10  1  0
 14  9  1  0
 15 16  1  0
 16 12  2  0
 17 13  1  0
  4  5  1  0
 15 11  2  0
M  END
> <COMPOUND_ID>
DNDI1416950

$$$$

  SciTegic04051205032D

 17 18  0  0  0  0            999 V2000
    9.2850   -6.4736    0.0000 C   0  0
    9.2850   -7.2951    0.0000 C   0  0
    8.5599   -7.7121    0.0000 N   0  0
    7.8567   -7.2951    0.0000 C   0  0
    8.5599   -6.0566    0.0000 C   0  0
    9.9976   -6.0566    0.0000 C   0  0
    7.8567   -6.4736    0.0000 C   0  0
    7.1440   -7.7121    0.0000 N   0  0
    9.9976   -7.7121    0.0000 O   0  0
    9.9976   -5.2475    0.0000 O   0  0
   10.7164   -6.4736    0.0000 N   0  0
    6.4314   -7.2951    0.0000 C   0  0
    5.7126   -7.7121    0.0000 C   0  0
    6.4314   -6.4736    0.0000 C   0  0
    5.0000   -7.2951    0.0000 C   0  0
    5.7126   -6.0566    0.0000 C   0  0
    5.0000   -6.4736    0.0000 C   0  0
  2  1  1  0
  3  2  1  0
  4  7  2  0
  5  1  2  0
  6  1  1  0
  7  5  1  0
  8  4  1  0
  9  2  2  0
 10  6  2  0
 11  6  1  0
 12  8  1  0
 13 12  2  0
 14 12  1  0
 15 13  1  0
 16 14  2  0
 17 15  2  0
  3  4  1  0
 17 16  1  0
M  END
> <COMPOUND_ID>
DNDI1416951

$$$$

  SciTegic04051205032D

 17 18  0  0  0  0            999 V2000
    7.0562   -7.7804    0.0000 N   0  0
    7.7403   -7.3843    0.0000 C   0  0
    7.7403   -6.5922    0.0000 C   0  0
    5.6841   -7.7724    0.0000 N   0  0
    6.3762   -7.3843    0.0000 C   0  0
    7.0562   -6.1962    0.0000 C   0  0
    7.0562   -8.5725    0.0000 C   0  0
    5.6760   -8.5605    0.0000 C   0  0
    8.4244   -6.1882    0.0000 O   0  0
    6.3682   -6.5922    0.0000 C   0  0
    7.0562   -5.3920    0.0000 C   0  0
    5.6841   -6.1962    0.0000 C   0  0
    6.3682   -5.0000    0.0000 C   0  0
    5.6841   -5.4040    0.0000 C   0  0
    8.4325   -7.7724    0.0000 C   0  0
    9.1166   -7.3764    0.0000 O   0  0
    5.0000   -5.0080    0.0000 C   0  0
  2  1  1  0
  3  2  1  0
  4  5  2  0
  5  1  1  0
  6  3  1  0
  7  1  1  0
  8  7  2  0
  9  3  2  0
 10  6  2  0
 11  6  1  0
 12 10  1  0
 13 11  2  0
 14 13  1  0
 15  2  1  0
 16 15  1  0
 17 14  1  0
  4  8  1  0
 14 12  2  0
M  END
> <COMPOUND_ID>
DNDI1416952

$$$$

  SciTegic04051205032D

 16 18  0  0  0  0            999 V2000
    7.6695   -7.2148    0.0000 C   0  0
    8.4840   -7.3705    0.0000 N   0  0
    6.9985   -7.7084    0.0000 N   0  0
    7.4191   -6.4198    0.0000 C   0  0
    9.0408   -6.7553    0.0000 C   0  0
    7.9783   -5.7998    0.0000 C   0  0
    8.7903   -5.9773    0.0000 C   0  0
    6.3712   -7.2148    0.0000 C   0  0
    6.6241   -6.4198    0.0000 C   0  0
    9.8455   -6.9255    0.0000 Cl  0  0
    8.7514   -8.1436    0.0000 C   0  0
    7.7279   -5.0000    0.0000 C   0  0
    6.0454   -5.8315    0.0000 C   0  0
    5.5519   -7.4093    0.0000 C   0  0
    5.2407   -6.0138    0.0000 C   0  0
    5.0000   -6.7918    0.0000 C   0  0
  2  1  1  0
  3  1  2  0
  4  1  1  0
  5  2  1  0
  6  4  2  0
  7  5  2  0
  8  3  1  0
  9  4  1  0
 10  5  1  0
 11  2  1  0
 12  6  1  0
 13  9  1  0
 14  8  1  0
 15 13  2  0
 16 14  2  0
  8  9  2  0
  7  6  1  0
 16 15  1  0
M  END
> <COMPOUND_ID>
DNDI1416953

$$$$

  SciTegic04051205032D

 16 17  0  0  0  0            999 V2000
    9.8915   -6.3989    0.0000 C   0  0
    8.6372   -6.0305    0.0000 C   0  0
    9.4439   -7.1076    0.0000 N   0  0
    9.4439   -5.7833    0.0000 C   0  0
    8.6372   -6.8465    0.0000 C   0  0
    5.7554   -5.9652    0.0000 C   0  0
    7.9191   -5.6015    0.0000 C   0  0
   10.7076   -6.3709    0.0000 O   0  0
    6.4829   -5.5828    0.0000 O   0  0
    9.7237   -5.0000    0.0000 O   0  0
    7.2056   -6.0305    0.0000 C   0  0
    7.9191   -7.2755    0.0000 C   0  0
    5.0652   -6.3709    0.0000 F   0  0
    5.0000   -5.5268    0.0000 F   0  0
    5.7694   -6.7346    0.0000 F   0  0
    7.2056   -6.8465    0.0000 C   0  0
  2  4  1  0
  3  1  1  0
  4  1  1  0
  5  3  1  0
  6  9  1  0
  7  2  1  0
  8  1  2  0
  9 11  1  0
 10  4  2  0
 11  7  2  0
 12  5  1  0
 13  6  1  0
 14  6  1  0
 15  6  1  0
 16 12  2  0
  5  2  2  0
 16 11  1  0
M  END
> <COMPOUND_ID>
DNDI1416954

$$$$

  SciTegic04051205032D

 17 18  0  0  0  0            999 V2000
    6.0213   -6.3808    0.0000 C   0  0
    6.8136   -6.5937    0.0000 C   0  0
    5.4442   -6.9692    0.0000 N   0  0
    5.8083   -5.5839    0.0000 C   0  0
    7.4020   -6.0075    0.0000 C   0  0
    6.3785   -5.0000    0.0000 C   0  0
    7.1754   -5.2106    0.0000 C   0  0
    8.4462   -7.0059    0.0000 O   0  0
    5.0000   -5.3755    0.0000 O   0  0
    8.2081   -6.2090    0.0000 C   0  0
    7.0380   -7.3906    0.0000 C   0  0
    5.6595   -7.7661    0.0000 C   0  0
    9.2523   -7.2051    0.0000 C   0  0
    9.4790   -8.0020    0.0000 C   0  0
    6.4564   -7.9745    0.0000 C   0  0
    8.9157   -8.5836    0.0000 C   0  0
   10.2690   -8.1989    0.0000 C   0  0
  2  1  1  0
  3  1  1  0
  4  1  2  0
  5  2  2  0
  6  4  1  0
  7  6  2  0
  8 10  1  0
  9  4  1  0
 10  5  1  0
 11  2  1  0
 12  3  2  0
 13  8  1  0
 14 13  1  0
 15 12  1  0
 16 14  1  0
 17 14  1  0
  5  7  1  0
 15 11  2  0
M  END
> <COMPOUND_ID>
DNDI1416955

$$$$

  SciTegic04051205032D

 16 16  0  0  0  0            999 V2000
    6.2625   -6.0963    0.0000 C   0  0
    6.1186   -6.9174    0.0000 C   0  0
    6.7487   -7.4482    0.0000 N   0  0
    7.0364   -5.8161    0.0000 C   0  0
    7.6540   -6.3518    0.0000 C   0  0
    7.5175   -7.1604    0.0000 C   0  0
    5.6226   -5.5656    0.0000 C   0  0
    5.0000   -5.0298    0.0000 N   0  0
    6.4510   -9.0604    0.0000 N   0  0
    5.8260   -8.5370    0.0000 C   0  0
    5.3373   -7.2076    0.0000 S   0  0
    7.1778   -5.0000    0.0000 C   0  0
    5.1935   -8.0186    0.0000 C   0  0
    8.4402   -6.0542    0.0000 C   0  0
    8.1550   -7.6912    0.0000 C   0  0
    9.0604   -6.5899    0.0000 C   0  0
  2  1  2  0
  3  2  1  0
  4  1  1  0
  5  4  2  0
  6  5  1  0
  7  1  1  0
  8  7  3  0
  9 10  3  0
 10 13  1  0
 11  2  1  0
 12  4  1  0
 13 11  1  0
 14  5  1  0
 15  6  1  0
 16 14  1  0
  6  3  2  0
M  END
> <COMPOUND_ID>
DNDI1416956

$$$$

  SciTegic04051205032D

 17 18  0  0  0  0            999 V2000
    5.8835   -6.4861    0.0000 N   0  0
    5.8835   -7.3172    0.0000 C   0  0
    6.6020   -7.7221    0.0000 N   0  0
    6.6020   -6.0759    0.0000 C   0  0
    7.3125   -6.4861    0.0000 C   0  0
    7.3125   -7.3172    0.0000 C   0  0
    8.0230   -7.7221    0.0000 N   0  0
    5.1650   -7.7221    0.0000 O   0  0
    6.6020   -5.2475    0.0000 O   0  0
    8.0230   -8.5532    0.0000 N   0  0
    5.1650   -6.0759    0.0000 C   0  0
    8.8300   -8.7730    0.0000 C   0  0
    9.0471   -9.5586    0.0000 C   0  0
    9.4037   -8.1806    0.0000 C   0  0
    9.8354   -9.7731    0.0000 C   0  0
   10.2080   -8.3923    0.0000 C   0  0
   10.4145   -9.1805    0.0000 C   0  0
  2  1  1  0
  3  2  1  0
  4  1  1  0
  5  4  1  0
  6  3  1  0
  7  6  1  0
  8  2  2  0
  9  4  2  0
 10  7  1  0
 11  1  1  0
 12 10  1  0
 13 12  2  0
 14 12  1  0
 15 13  1  0
 16 14  2  0
 17 16  1  0
  5  6  2  0
 17 15  2  0
M  END
> <COMPOUND_ID>
DNDI1416957

$$$$

  SciTegic04051205032D

 16 17  0  0  0  0            999 V2000
    7.1395   -7.3069    0.0000 C   0  0
    7.1395   -6.4765    0.0000 C   0  0
    6.4248   -7.7188    0.0000 C   0  0
    5.7102   -7.3069    0.0000 C   0  0
    6.4248   -6.0624    0.0000 C   0  0
    5.7102   -6.4765    0.0000 C   0  0
    7.8520   -7.7188    0.0000 C   0  0
    7.9588   -8.5559    0.0000 S   0  0
    6.4248   -8.5403    0.0000 O   0  0
    6.4248   -5.2475    0.0000 O   0  0
    8.5822   -7.3737    0.0000 C   0  0
    8.7759   -8.6895    0.0000 C   0  0
    9.1633   -7.9325    0.0000 C   0  0
    7.8520   -6.0624    0.0000 C   0  0
    5.0000   -7.7188    0.0000 C   0  0
    5.0000   -6.0624    0.0000 C   0  0
  2  1  2  0
  3  1  1  0
  4  3  1  0
  5  2  1  0
  6  4  2  0
  7  1  1  0
  8  7  1  0
  9  3  2  0
 10  5  2  0
 11  7  2  0
 12  8  1  0
 13 11  1  0
 14  2  1  0
 15  4  1  0
 16  6  1  0
  6  5  1  0
 12 13  2  0
M  END
> <COMPOUND_ID>
DNDI1416958

$$$$

  SciTegic04051205032D

 17 17  0  0  0  0            999 V2000
    7.1466   -7.4794    0.0000 N   0  0
    8.5693   -7.4794    0.0000 C   0  0
    7.1466   -6.6557    0.0000 C   0  0
    7.8580   -7.8912    0.0000 N   0  0
    8.5693   -6.6557    0.0000 N   0  0
    7.8580   -6.2438    0.0000 C   0  0
    6.4352   -6.2438    0.0000 C   0  0
    7.8580   -5.4201    0.0000 C   0  0
    9.2807   -7.8912    0.0000 N   0  0
    7.1466   -5.0083    0.0000 C   0  0
    8.6567   -5.6323    0.0000 C   0  0
    8.5693   -5.0083    0.0000 C   0  0
    6.4352   -5.4118    0.0000 C   0  0
    5.7114   -6.6557    0.0000 C   0  0
    5.0000   -6.2438    0.0000 C   0  0
    5.7114   -5.0000    0.0000 C   0  0
    5.0000   -5.4118    0.0000 C   0  0
  2  4  1  0
  3  1  2  0
  4  1  1  0
  5  2  2  0
  6  3  1  0
  7  3  1  0
  8  6  1  0
  9  2  1  0
 10  8  1  0
 11  8  1  0
 12  8  1  0
 13  7  1  0
 14  7  2  0
 15 14  1  0
 16 13  2  0
 17 15  2  0
 17 16  1  0
M  END
> <COMPOUND_ID>
DNDI1416959

$$$$

  SciTegic04051205032D

 17 18  0  0  0  0            999 V2000
    7.6266   -7.8976    0.0000 C   0  0
    7.6266   -8.7134    0.0000 C   0  0
    8.3329   -9.1387    0.0000 O   0  0
    8.3329   -7.4698    0.0000 N   0  0
    9.0468   -8.7134    0.0000 C   0  0
    9.0468   -7.8976    0.0000 N   0  0
    6.9152   -7.4698    0.0000 N   0  0
    6.9152   -6.6565    0.0000 C   0  0
    9.7556   -9.1387    0.0000 N   0  0
    6.9152   -9.1387    0.0000 N   0  0
    6.2064   -6.2510    0.0000 C   0  0
    5.4950   -6.6565    0.0000 O   0  0
    7.6266   -6.2510    0.0000 C   0  0
   10.4695   -8.7507    0.0000 C   0  0
    6.2064   -5.3929    0.0000 C   0  0
    7.6266   -5.3929    0.0000 C   0  0
    6.9152   -5.0000    0.0000 C   0  0
  2  1  2  0
  3  2  1  0
  4  1  1  0
  5  6  1  0
  6  4  2  0
  7  1  1  0
  8  7  1  0
  9  5  2  0
 10  2  1  0
 11  8  1  0
 12 11  1  0
 13  8  2  0
 14  9  1  0
 15 11  2  0
 16 13  1  0
 17 16  2  0
  5  3  1  0
 17 15  1  0
M  END
> <COMPOUND_ID>
DNDI1416960

$$$$

  SciTegic04051205032D

 17 18  0  0  0  0            999 V2000
    7.1454   -7.4789    0.0000 N   0  0
    6.4337   -7.0664    0.0000 C   0  0
    6.4337   -6.2412    0.0000 C   0  0
    8.5722   -8.3041    0.0000 N   0  0
    7.1454   -8.3041    0.0000 C   0  0
    7.8605   -7.0629    0.0000 C   0  0
    5.7185   -5.8286    0.0000 C   0  0
    7.8605   -8.7132    0.0000 C   0  0
    8.5722   -7.4789    0.0000 C   0  0
   10.5388   -9.2530    0.0000 N   0  0
    5.7185   -7.4789    0.0000 C   0  0
    7.1454   -5.8286    0.0000 C   0  0
    9.1567   -8.8817    0.0000 C   0  0
    5.0068   -7.0732    0.0000 C   0  0
    5.0000   -6.2412    0.0000 C   0  0
    5.7048   -5.0000    0.0000 C   0  0
    9.9509   -8.6685    0.0000 C   0  0
  2  1  1  0
  3  2  2  0
  4  9  1  0
  5  1  1  0
  6  1  1  0
  7  3  1  0
  8  5  1  0
  9  6  1  0
 10 17  1  0
 11  2  1  0
 12  3  1  0
 13  4  1  0
 14 11  2  0
 15 14  1  0
 16  7  1  0
 17 13  1  0
  4  8  1  0
 15  7  2  0
M  END
> <COMPOUND_ID>
DNDI1416961

$$$$

  SciTegic04051205032D

 17 18  0  0  0  0            999 V2000
    7.7930   -6.8627    0.0000 N   0  0
    7.5161   -7.6224    0.0000 C   0  0
    8.4132   -6.3688    0.0000 C   0  0
    7.1507   -6.3909    0.0000 N   0  0
    6.6789   -7.7819    0.0000 C   0  0
    8.1562   -5.6423    0.0000 C   0  0
    7.3877   -5.6423    0.0000 C   0  0
    8.0167   -8.2426    0.0000 O   0  0
    6.0831   -7.1949    0.0000 C   0  0
    8.9713   -7.0864    0.0000 O   0  0
    9.0776   -5.9324    0.0000 C   0  0
    6.4441   -8.6280    0.0000 C   0  0
    6.3378   -6.4220    0.0000 O   0  0
    6.9380   -5.0000    0.0000 C   0  0
    5.2259   -7.3766    0.0000 C   0  0
    5.6003   -8.8207    0.0000 C   0  0
    5.0000   -8.2094    0.0000 C   0  0
  2  1  1  0
  3  1  1  0
  4  1  1  0
  5  2  1  0
  6  3  1  0
  7  4  2  0
  8  2  2  0
  9  5  2  0
 10  3  1  0
 11  3  1  0
 12  5  1  0
 13  9  1  0
 14  7  1  0
 15  9  1  0
 16 12  2  0
 17 16  1  0
  7  6  1  0
 17 15  2  0
M  END
> <COMPOUND_ID>
DNDI1416962

$$$$

  SciTegic04051205032D

 17 17  0  0  0  0            999 V2000
    6.2161   -5.7030    0.0000 C   0  0
    7.6963   -5.7409    0.0000 N   0  0
    5.4950   -5.2475    0.0000 N   0  0
    9.1715   -5.7789    0.0000 C   0  0
    6.9752   -5.3007    0.0000 N   0  0
    9.1715   -6.6164    0.0000 C   0  0
    8.4301   -5.3184    0.0000 C   0  0
    6.1832   -6.3532    0.0000 N   0  0
    8.4149   -7.0567    0.0000 O   0  0
    9.9255   -5.3336    0.0000 C   0  0
    9.9255   -7.0415    0.0000 C   0  0
    7.6963   -6.6164    0.0000 C   0  0
    6.9398   -7.0415    0.0000 C   0  0
    6.2161   -6.5962    0.0000 C   0  0
   10.6669   -5.7789    0.0000 C   0  0
    5.8138   -6.9352    0.0000 C   0  0
   10.6669   -6.6164    0.0000 C   0  0
  2  5  1  0
  3  1  2  0
  4  7  1  0
  5  1  1  0
  6  4  2  0
  7  2  2  0
  8  1  1  0
  9  6  1  0
 10  4  1  0
 11  6  1  0
 12  9  1  0
 13 12  1  0
 14 13  1  0
 15 10  2  0
 16 14  1  0
 17 15  1  0
 17 11  2  0
M  END
> <COMPOUND_ID>
DNDI1416963

$$$$

  SciTegic04051205032D

 18 20  0  0  0  0            999 V2000
    7.8487   -7.8821    0.0000 C   0  0
    7.1366   -7.4777    0.0000 C   0  0
    6.4244   -7.8821    0.0000 C   0  0
    8.5794   -7.4777    0.0000 C   0  0
    6.4244   -8.7056    0.0000 C   0  0
    7.8487   -8.7056    0.0000 C   0  0
    7.1366   -6.6543    0.0000 O   0  0
    7.9192   -5.3968    0.0000 N   0  0
    7.1366   -9.1099    0.0000 C   0  0
    8.6166   -6.6543    0.0000 C   0  0
    5.7122   -7.4777    0.0000 C   0  0
    7.9044   -6.2278    0.0000 C   0  0
    8.6499   -5.0000    0.0000 C   0  0
    5.7122   -9.1099    0.0000 C   0  0
    9.3435   -6.2500    0.0000 C   0  0
    5.0000   -7.8821    0.0000 C   0  0
    9.3806   -5.4266    0.0000 C   0  0
    5.0000   -8.7056    0.0000 C   0  0
  2  1  1  0
  3  2  1  0
  4  1  2  0
  5  9  1  0
  6  1  1  0
  7  2  2  0
  8 12  2  0
  9  6  1  0
 10  4  1  0
 11  3  1  0
 12 10  1  0
 13  8  1  0
 14  5  1  0
 15 10  2  0
 16 11  2  0
 17 15  1  0
 18 14  2  0
  5  3  2  0
 13 17  2  0
 18 16  1  0
M  END
> <COMPOUND_ID>
DNDI1416964

$$$$

  SciTegic04051205032D

 14 14  0  0  0  0            999 V2000
    8.5908   -5.8189    0.0000 C   0  0
    6.4563   -7.0789    0.0000 C   0  0
    5.7448   -7.4902    0.0000 C   0  0
    7.1493   -7.4902    0.0000 C   0  0
    7.8793   -7.0640    0.0000 O   0  0
    8.5908   -5.0000    0.0000 O   0  0
    9.3023   -6.2229    0.0000 N   0  0
    7.8793   -6.2229    0.0000 C   0  0
    7.1493   -8.3091    0.0000 C   0  0
    5.7263   -8.3091    0.0000 C   0  0
    6.4563   -6.2451    0.0000 Cl  0  0
    6.4563   -8.7131    0.0000 C   0  0
    5.0000   -8.7131    0.0000 Cl  0  0
    9.3023   -7.0640    0.0000 O   0  0
  2  4  1  0
  3  2  2  0
  4  5  1  0
  5  8  1  0
  6  1  2  0
  7  1  1  0
  8  1  1  0
  9  4  2  0
 10 12  2  0
 11  2  1  0
 12  9  1  0
 13 10  1  0
 14  7  1  0
 10  3  1  0
M  END
> <COMPOUND_ID>
DNDI1416965

$$$$

  SciTegic04051205032D

 18 20  0  0  0  0            999 V2000
    7.1367   -6.6496    0.0000 N   0  0
    6.4180   -6.2300    0.0000 C   0  0
    7.8433   -6.2300    0.0000 C   0  0
    8.5692   -6.6496    0.0000 N   0  0
    5.7114   -6.6496    0.0000 C   0  0
    6.4180   -5.4052    0.0000 C   0  0
    7.1367   -5.0000    0.0000 C   0  0
    7.8433   -5.4052    0.0000 C   0  0
    8.5692   -7.4743    0.0000 C   0  0
    5.7114   -7.4743    0.0000 O   0  0
    5.0000   -5.4052    0.0000 C   0  0
    5.0000   -6.2300    0.0000 C   0  0
    5.7114   -5.0000    0.0000 C   0  0
    9.2830   -7.8867    0.0000 C   0  0
    7.8529   -7.8867    0.0000 C   0  0
    7.8529   -8.7163    0.0000 C   0  0
    9.2830   -8.7163    0.0000 C   0  0
    8.5692   -9.1311    0.0000 C   0  0
  2  1  1  0
  3  1  2  0
  4  3  1  0
  5  2  1  0
  6  2  2  0
  7  8  2  0
  8  3  1  0
  9  4  1  0
 10  5  1  0
 11 13  2  0
 12  5  2  0
 13  6  1  0
 14  9  2  0
 15  9  1  0
 16 15  2  0
 17 14  1  0
 18 16  1  0
  7  6  1  0
 11 12  1  0
 18 17  2  0
M  END
> <COMPOUND_ID>
DNDI1416966

$$$$

  SciTegic04051205032D

 13 13  0  0  0  0            999 V2000
    6.7689  -10.1252    0.0000 N   0  0
    6.5034   -8.8462    0.0000 C   0  0
    6.1716   -9.5822    0.0000 C   0  0
    7.4747   -9.7149    0.0000 C   0  0
    7.2997   -8.9186    0.0000 S   0  0
    6.5034   -5.9625    0.0000 C   0  0
    6.0902   -8.1222    0.0000 C   0  0
    6.5034   -7.4013    0.0000 N   0  0
    6.0902   -5.2475    0.0000 S   0  0
    8.2530  -10.0438    0.0000 O   0  0
    6.0902   -6.6864    0.0000 N   0  0
    5.3300   -9.7149    0.0000 Cl  0  0
    7.3359   -5.9625    0.0000 N   0  0
  2  3  2  0
  3  1  1  0
  4  1  1  0
  5  4  1  0
  6 11  1  0
  7  2  1  0
  8  7  2  0
  9  6  2  0
 10  4  2  0
 11  8  1  0
 12  3  1  0
 13  6  1  0
  5  2  1  0
M  END
> <COMPOUND_ID>
DNDI1416967

$$$$

  SciTegic04051205032D

 16 17  0  0  0  0            999 V2000
    7.7152   -6.2121    0.0000 C   0  0
    7.7152   -5.4530    0.0000 C   0  0
    7.0342   -6.6051    0.0000 N   0  0
    6.3561   -5.4530    0.0000 C   0  0
    6.3561   -6.2121    0.0000 C   0  0
    8.4113   -5.0480    0.0000 Cl  0  0
    8.4113   -6.6171    0.0000 C   0  0
    9.1104   -6.2121    0.0000 N   0  0
    5.6780   -5.0690    0.0000 C   0  0
    5.6780   -6.6051    0.0000 C   0  0
    9.1104   -5.4080    0.0000 C   0  0
    9.8304   -5.0000    0.0000 C   0  0
   10.5445   -5.4080    0.0000 C   0  0
    5.0000   -5.4530    0.0000 C   0  0
    5.0000   -6.2121    0.0000 C   0  0
   11.2556   -5.0000    0.0000 C   0  0
  2  1  2  0
  3  1  1  0
  4  2  1  0
  5  3  1  0
  6  2  1  0
  7  1  1  0
  8  7  1  0
  9  4  1  0
 10  5  1  0
 11  8  1  0
 12 11  1  0
 13 12  1  0
 14  9  2  0
 15 10  2  0
 16 13  1  0
  4  5  2  0
 14 15  1  0
M  END
> <COMPOUND_ID>
DNDI1416968

$$$$

  SciTegic04051205032D

 18 20  0  0  0  0            999 V2000
    7.1307   -7.0722    0.0000 C   0  0
    7.1307   -6.2440    0.0000 C   0  0
    7.8454   -7.4812    0.0000 N   0  0
    7.8420   -5.8316    0.0000 C   0  0
    8.5567   -6.2303    0.0000 C   0  0
    8.5567   -7.0585    0.0000 C   0  0
    6.4227   -7.4812    0.0000 N   0  0
    6.4227   -5.8316    0.0000 C   0  0
    5.7010   -6.2440    0.0000 C   0  0
    5.7010   -7.0722    0.0000 C   0  0
    9.2783   -7.4708    0.0000 C   0  0
    7.8420   -5.0000    0.0000 N   0  0
    9.2680   -5.8110    0.0000 C   0  0
    6.4124   -5.0138    0.0000 C   0  0
    9.9863   -6.2234    0.0000 C   0  0
    9.9932   -7.0482    0.0000 C   0  0
    5.0000   -7.4812    0.0000 C   0  0
    9.2887   -8.2956    0.0000 C   0  0
  2  1  1  0
  3  1  1  0
  4  2  1  0
  5  6  1  0
  6  3  2  0
  7  1  2  0
  8  2  2  0
  9 10  2  0
 10  7  1  0
 11  6  1  0
 12  4  1  0
 13  5  1  0
 14  8  1  0
 15 16  1  0
 16 11  2  0
 17 10  1  0
 18 11  1  0
  9  8  1  0
  4  5  2  0
 13 15  2  0
M  END
> <COMPOUND_ID>
DNDI1416969

$$$$

  SciTegic04051205032D

 17 18  0  0  0  0            999 V2000
    5.7990   -7.0141    0.0000 N   0  3
    8.7577   -6.2651    0.0000 C   0  0
    6.2567   -7.7007    0.0000 C   0  0
    9.5816   -6.2651    0.0000 N   0  0
    8.5163   -5.4744    0.0000 O   0  0
    8.3415   -6.9725    0.0000 C   0  0
    5.7990   -8.3499    0.0000 O   0  0
    7.5093   -6.9725    0.0000 C   0  0
    7.1056   -7.7007    0.0000 C   0  0
    5.0000   -7.2970    0.0000 C   0  0
    6.0611   -6.2359    0.0000 C   0  0
    5.0000   -8.1085    0.0000 C   0  0
    9.1697   -5.0000    0.0000 C   0  0
    9.8396   -5.4744    0.0000 C   0  0
   10.0685   -6.9142    0.0000 C   0  0
    5.6492   -5.5160    0.0000 C   0  0
    9.7397   -7.6758    0.0000 C   0  0
  2  6  2  0
  3  1  2  0
  4  2  1  0
  5  2  1  0
  6  8  1  0
  7  3  1  0
  8  9  2  0
  9  3  1  0
 10  1  1  0
 11  1  1  0
 12 10  1  0
 13  5  1  0
 14  4  1  0
 15  4  1  0
 16 11  1  0
 17 15  1  0
 12  7  1  0
 13 14  1  0
M  CHG  1   1   1
M  END
> <COMPOUND_ID>
DNDI1416970

$$$$

  SciTegic04051205032D

 18 20  0  0  0  0            999 V2000
    7.1677   -7.4683    0.0000 C   0  0
    8.6092   -6.6438    0.0000 C   0  0
    8.6092   -7.4683    0.0000 C   0  0
    7.8833   -7.8625    0.0000 C   0  0
    7.1677   -6.6438    0.0000 C   0  0
    7.8833   -6.2290    0.0000 C   0  0
    6.4468   -6.2290    0.0000 C   0  0
    7.8833   -5.4148    0.0000 C   0  0
    6.4468   -7.8625    0.0000 C   0  0
    9.3145   -6.2290    0.0000 C   0  0
    7.8833   -8.6870    0.0000 O   0  0
    9.3145   -7.8625    0.0000 O   0  0
    9.3145   -5.4148    0.0000 C   0  0
    5.7209   -7.4683    0.0000 C   0  0
    5.7209   -6.6438    0.0000 C   0  0
    8.6092   -5.0000    0.0000 C   0  0
   10.0560   -5.0000    0.0000 N   0  0
    5.0000   -7.8625    0.0000 N   0  0
  2  6  2  0
  3  4  1  0
  4  1  1  0
  5  1  2  0
  6  5  1  0
  7  5  1  0
  8  6  1  0
  9  1  1  0
 10  2  1  0
 11  4  2  0
 12  3  2  0
 13 16  1  0
 14  9  2  0
 15 14  1  0
 16  8  2  0
 17 13  1  0
 18 14  1  0
  2  3  1  0
 15  7  2  0
 10 13  2  0
M  END
> <COMPOUND_ID>
DNDI1416971

$$$$

  SciTegic04051205032D

 18 20  0  0  0  0            999 V2000
    7.1115   -6.6543    0.0000 N   0  0
    7.1115   -5.0000    0.0000 N   0  0
    7.8489   -5.4129    0.0000 C   0  0
    6.4183   -6.2388    0.0000 C   0  0
    6.4183   -5.4129    0.0000 C   0  0
    7.8489   -6.2388    0.0000 C   0  0
    7.1115   -7.4753    0.0000 C   0  0
    8.5396   -5.0000    0.0000 O   0  0
    7.7137   -8.0726    0.0000 C   0  0
    5.6883   -5.0000    0.0000 C   0  0
    5.6883   -6.6543    0.0000 C   0  0
    7.4802   -8.8591    0.0000 C   0  0
    8.4904   -7.8440    0.0000 C   0  0
    5.0000   -5.4129    0.0000 C   0  0
    5.0000   -6.2388    0.0000 C   0  0
    9.0926   -8.4462    0.0000 C   0  0
    8.0775   -9.4564    0.0000 C   0  0
    8.8640   -9.2229    0.0000 C   0  0
  2  3  1  0
  3  6  1  0
  4  1  1  0
  5  4  1  0
  6  1  1  0
  7  1  1  0
  8  3  2  0
  9  7  1  0
 10  5  2  0
 11  4  2  0
 12  9  2  0
 13  9  1  0
 14 15  2  0
 15 11  1  0
 16 13  2  0
 17 12  1  0
 18 16  1  0
  5  2  1  0
 10 14  1  0
 17 18  2  0
M  END
> <COMPOUND_ID>
DNDI1416972

$$$$

  SciTegic04051205032D

 16 16  0  0  0  0            999 V2000
   12.0248   -6.4160    0.0000 C   0  0
   12.4338   -5.7114    0.0000 N   0  0
   11.1862   -6.4160    0.0000 S   0  0
   12.4338   -7.1411    0.0000 N   0  0
   10.7772   -5.7114    0.0000 C   0  0
    9.9558   -5.7114    0.0000 C   0  0
    8.2959   -5.7114    0.0000 C   0  0
    9.5434   -6.4263    0.0000 C   0  0
    9.5434   -5.0000    0.0000 C   0  0
    8.7083   -6.4263    0.0000 C   0  0
    8.7083   -5.0000    0.0000 C   0  0
    7.4779   -5.7114    0.0000 O   0  0
    7.0655   -6.4160    0.0000 C   0  0
    6.2406   -6.4160    0.0000 C   0  0
    5.8282   -7.1308    0.0000 C   0  0
    5.0000   -7.1308    0.0000 C   0  0
  2  1  2  0
  3  1  1  0
  4  1  1  0
  5  3  1  0
  6  5  1  0
  7 11  1  0
  8  6  2  0
  9  6  1  0
 10  8  1  0
 11  9  2  0
 12  7  1  0
 13 12  1  0
 14 13  1  0
 15 14  1  0
 16 15  1  0
 10  7  2  0
M  END
> <COMPOUND_ID>
DNDI1416973

$$$$

  SciTegic04051205032D

 17 19  0  0  0  0            999 V2000
    7.6718   -6.3661    0.0000 C   0  0
    7.0039   -6.7478    0.0000 S   0  0
    7.6718   -5.6054    0.0000 C   0  0
    6.3359   -5.6054    0.0000 C   0  0
    8.3875   -6.7690    0.0000 N   0  0
    6.3359   -6.3661    0.0000 C   0  0
    8.4432   -5.2475    0.0000 O   0  0
    9.0873   -6.3528    0.0000 C   0  0
    5.6653   -5.2264    0.0000 C   0  0
    5.6653   -6.7478    0.0000 C   0  0
    9.0766   -5.5259    0.0000 C   0  0
    9.8373   -6.7478    0.0000 C   0  0
    5.0000   -5.6054    0.0000 C   0  0
    5.0000   -6.3661    0.0000 C   0  0
    9.7552   -5.0991    0.0000 C   0  0
   10.5265   -6.3184    0.0000 C   0  0
   10.4921   -5.4781    0.0000 C   0  0
  2  1  1  0
  3  1  1  0
  4  3  1  0
  5  1  2  0
  6  2  1  0
  7  3  2  0
  8  5  1  0
  9  4  1  0
 10  6  1  0
 11  8  2  0
 12  8  1  0
 13  9  2  0
 14 10  2  0
 15 11  1  0
 16 12  2  0
 17 16  1  0
  4  6  2  0
 13 14  1  0
 17 15  2  0
M  END
> <COMPOUND_ID>
DNDI1416974

$$$$

  SciTegic04051205032D

 15 16  0  0  0  0            999 V2000
    7.7017   -6.0801    0.0000 C   0  0
    8.5208   -6.0801    0.0000 S   0  0
    7.2263   -5.4275    0.0000 N   0  0
    7.2263   -6.7542    0.0000 S   0  0
    6.4395   -5.6718    0.0000 C   0  0
    6.4395   -6.5071    0.0000 C   0  0
    8.5369   -6.8992    0.0000 O   0  0
    8.5208   -5.2475    0.0000 O   0  0
    9.3560   -6.0640    0.0000 C   0  0
    9.7642   -5.3603    0.0000 C   0  0
   10.5995   -5.3603    0.0000 C   0  0
    5.7197   -5.2637    0.0000 C   0  0
    5.7197   -6.9153    0.0000 C   0  0
    5.0000   -5.6880    0.0000 C   0  0
    5.0000   -6.4910    0.0000 C   0  0
  2  1  1  0
  3  1  2  0
  4  1  1  0
  5  3  1  0
  6  4  1  0
  7  2  2  0
  8  2  2  0
  9  2  1  0
 10  9  1  0
 11 10  2  0
 12  5  1  0
 13  6  1  0
 14 12  2  0
 15 13  2  0
  6  5  2  0
 15 14  1  0
M  END
> <COMPOUND_ID>
DNDI1416975

$$$$

  SciTegic04051205032D

 18 19  0  0  0  0            999 V2000
    5.7358   -5.4140    0.0000 N   0  3
    7.8985   -6.6562    0.0000 C   0  0
    7.8985   -7.4791    0.0000 C   0  0
   10.0400   -8.7344    0.0000 C   0  0
   10.7468   -9.1485    0.0000 N   0  0
    6.4426   -5.0000    0.0000 C   0  0
    5.7358   -6.2369    0.0000 C   0  0
   10.0400   -7.9116    0.0000 C   0  0
    9.3147   -9.1248    0.0000 C   0  0
    8.6079   -7.8984    0.0000 C   0  0
    7.1626   -6.2369    0.0000 C   0  0
    9.3305   -7.4923    0.0000 C   0  0
    8.6079   -8.7213    0.0000 C   0  0
    5.0000   -5.0105    0.0000 C   0  0
    7.1521   -5.4140    0.0000 C   0  0
    6.4558   -6.6457    0.0000 C   0  0
   10.7389   -9.9872    0.0000 C   0  0
   11.4510   -8.7344    0.0000 C   0  0
  2 11  1  0
  3  2  2  0
  4  9  2  0
  5  4  1  0
  6  1  2  0
  7  1  1  0
  8 12  2  0
  9 13  1  0
 10  3  1  0
 11 16  1  0
 12 10  1  0
 13 10  2  0
 14  1  1  0
 15  6  1  0
 16  7  2  0
 17  5  1  0
 18  5  1  0
 11 15  2  0
  4  8  1  0
M  CHG  1   1   1
M  END
> <COMPOUND_ID>
DNDI1416976

$$$$

  SciTegic04051205032D

 18 19  0  0  0  0            999 V2000
    6.8011   -6.4528    0.0000 C   0  0
    8.2201   -8.1083    0.0000 C   0  0
    7.5061   -6.8644    0.0000 N   0  0
    6.8011   -5.6296    0.0000 C   0  0
    7.5061   -7.6989    0.0000 N   0  0
    6.1644   -6.9621    0.0000 C   0  0
    6.1644   -5.1179    0.0000 C   0  0
    8.2201   -8.9315    0.0000 O   0  0
    8.9296   -7.6944    0.0000 C   0  0
    7.5425   -5.2475    0.0000 O   0  0
    5.3570   -6.7757    0.0000 C   0  0
    5.3570   -5.3021    0.0000 C   0  0
    5.0000   -6.0389    0.0000 C   0  0
    8.9251   -6.8689    0.0000 C   0  0
    9.6574   -8.1014    0.0000 C   0  0
    9.6391   -6.4482    0.0000 C   0  0
   10.3714   -7.6762    0.0000 C   0  0
   10.3601   -6.8461    0.0000 C   0  0
  2  5  1  0
  3  1  1  0
  4  1  1  0
  5  3  1  0
  6  1  2  0
  7  4  1  0
  8  2  2  0
  9  2  1  0
 10  4  2  0
 11  6  1  0
 12  7  2  0
 13 11  2  0
 14  9  2  0
 15  9  1  0
 16 14  1  0
 17 15  2  0
 18 17  1  0
 13 12  1  0
 18 16  2  0
M  END
> <COMPOUND_ID>
DNDI1416977

$$$$

  SciTegic04051205032D

 18 20  0  0  0  0            999 V2000
    7.2380   -5.7597    0.0000 N   0  0
    7.2380   -7.0764    0.0000 N   0  0
    7.7124   -6.3991    0.0000 C   0  0
    6.4439   -6.8426    0.0000 C   0  0
    6.4439   -5.9969    0.0000 C   0  0
    8.5305   -6.3648    0.0000 C   0  0
    8.9053   -5.6326    0.0000 C   0  0
    8.9637   -7.0592    0.0000 C   0  0
    7.5301   -5.0000    0.0000 C   0  0
    7.5130   -7.8430    0.0000 C   0  0
   10.1806   -6.2926    0.0000 C   0  0
    9.8025   -7.0179    0.0000 C   0  0
    9.7303   -5.5844    0.0000 C   0  0
    5.7356   -5.5982    0.0000 C   0  0
    5.7356   -7.2483    0.0000 C   0  0
   10.9920   -6.2823    0.0000 O   0  0
    5.0000   -6.8426    0.0000 C   0  0
    5.0000   -5.9969    0.0000 C   0  0
  2  3  1  0
  3  1  1  0
  4  5  2  0
  5  1  1  0
  6  3  1  0
  7  6  2  0
  8  6  1  0
  9  1  1  0
 10  2  1  0
 11 12  1  0
 12  8  2  0
 13  7  1  0
 14  5  1  0
 15  4  1  0
 16 11  1  0
 17 18  1  0
 18 14  2  0
  2  4  1  0
 17 15  2  0
 11 13  2  0
M  END
> <COMPOUND_ID>
DNDI1416978

$$$$

  SciTegic04051205032D

 17 17  0  0  0  0            999 V2000
    7.8046   -7.7026    0.0000 C   0  0
    7.8254   -6.0505    0.0000 N   0  0
    6.3992   -6.0756    0.0000 C   0  0
    7.1228   -6.4771    0.0000 N   0  0
    8.5281   -7.3010    0.0000 C   0  0
    8.5281   -6.4771    0.0000 C   0  0
    7.0642   -8.1209    0.0000 C   0  0
    5.6798   -6.4980    0.0000 N   0  0
    6.3825   -5.2475    0.0000 N   0  0
    7.3863   -6.9790    0.0000 C   0  0
    8.2061   -8.4220    0.0000 C   0  0
    9.2308   -6.0505    0.0000 C   0  0
    7.0642   -8.9448    0.0000 C   0  0
    6.3365   -7.7193    0.0000 C   0  0
    6.3365   -9.3463    0.0000 C   0  0
    5.6338   -8.1209    0.0000 C   0  0
    5.6589   -8.9448    0.0000 C   0  0
  2  6  2  0
  3  4  1  0
  4  2  1  0
  5  1  1  0
  6  5  1  0
  7  1  1  0
  8  3  1  0
  9  3  1  0
 10  1  1  0
 11  1  1  0
 12  6  1  0
 13  7  1  0
 14  7  1  0
 15 13  1  0
 16 14  1  0
 17 16  1  0
 15 17  1  0
M  END
> <COMPOUND_ID>
DNDI1416979

$$$$

  SciTegic04051205032D

 18 20  0  0  0  0            999 V2000
    8.5705   -6.6503    0.0000 N   0  0
    9.3303   -6.3562    0.0000 C   0  0
    8.6072   -7.4756    0.0000 N   0  0
    7.8596   -6.2378    0.0000 C   0  0
    7.1366   -6.6503    0.0000 N   0  0
    9.8450   -6.9854    0.0000 C   0  0
    6.4339   -6.2378    0.0000 C   0  0
    9.3916   -7.6839    0.0000 C   0  0
    9.5509   -5.5515    0.0000 O   0  0
    7.8596   -5.4167    0.0000 C   0  0
    5.7272   -6.6503    0.0000 C   0  0
    6.4339   -5.4167    0.0000 C   0  0
    7.1366   -5.0000    0.0000 C   0  0
    5.7272   -7.4756    0.0000 O   0  0
    5.0000   -5.4167    0.0000 C   0  0
    9.6857   -8.4764    0.0000 C   0  0
    5.0000   -6.2378    0.0000 C   0  0
    5.7272   -5.0000    0.0000 C   0  0
  2  1  1  0
  3  1  1  0
  4  1  1  0
  5  4  2  0
  6  2  1  0
  7  5  1  0
  8  3  2  0
  9  2  2  0
 10  4  1  0
 11  7  1  0
 12 13  1  0
 13 10  2  0
 14 11  1  0
 15 18  2  0
 16  8  1  0
 17 11  2  0
 18 12  1  0
  8  6  1  0
 12  7  2  0
 15 17  1  0
M  END
> <COMPOUND_ID>
DNDI1416980

$$$$

  SciTegic04051205032D

 16 18  0  0  0  0            999 V2000
    7.5821   -7.2633    0.0000 N   0  0
    7.1692   -6.4860    0.0000 C   0  0
    8.4430   -7.1095    0.0000 N   0  0
    7.7843   -5.8575    0.0000 N   0  0
    7.0054   -7.7848    0.0000 C   0  0
    6.6778   -8.6022    0.0000 C   0  0
    8.5700   -6.2453    0.0000 C   0  0
    6.0191   -8.0506    0.0000 O   0  0
    6.4538   -7.9302    0.0000 C   0  0
    5.2720   -8.0439    0.0000 C   0  0
    5.5511   -7.4722    0.0000 C   0  0
    5.1650   -8.6407    0.0000 O   0  0
    6.3000   -6.3606    0.0000 S   0  0
    5.9306   -9.0619    0.0000 C   0  0
    5.2720   -6.6414    0.0000 O   0  0
    7.6322   -5.0000    0.0000 C   0  0
  2  1  1  0
  3  1  1  0
  4  2  1  0
  5  1  1  0
  6  5  1  0
  7  3  2  0
  8  6  1  0
  9  5  1  0
 10 11  1  0
 11  9  1  0
 12 14  1  0
 13  2  2  0
 14  6  1  0
 15 11  2  0
 16  4  1  0
  7  4  1  0
 10  8  1  0
 12 10  1  0
M  END
> <COMPOUND_ID>
DNDI1416981

$$$$

  SciTegic04051205032D

 17 19  0  0  0  0            999 V2000
    6.4445   -7.0660    0.0000 C   0  0
    7.1524   -7.4763    0.0000 C   0  0
    6.4445   -8.7240    0.0000 N   0  0
    7.1524   -8.3065    0.0000 N   0  0
    5.7271   -8.3137    0.0000 N   0  0
    5.7271   -7.4763    0.0000 C   0  0
    6.4445   -6.2453    0.0000 C   0  0
    7.8626   -7.0660    0.0000 C   0  0
    5.0000   -7.0755    0.0000 C   0  0
    5.7271   -5.8422    0.0000 C   0  0
    5.0000   -6.2525    0.0000 C   0  0
    5.7271   -5.0000    0.0000 Cl  0  0
    7.8626   -6.2525    0.0000 C   0  0
    8.5849   -7.4619    0.0000 C   0  0
    8.5681   -5.8422    0.0000 C   0  0
    9.2927   -7.0516    0.0000 C   0  0
    9.3023   -6.2357    0.0000 C   0  0
  2  1  1  0
  3  5  2  0
  4  2  2  0
  5  6  1  0
  6  1  2  0
  7  1  1  0
  8  2  1  0
  9  6  1  0
 10  7  2  0
 11 10  1  0
 12 10  1  0
 13  8  1  0
 14  8  2  0
 15 13  2  0
 16 14  1  0
 17 16  2  0
  3  4  1  0
 11  9  2  0
 17 15  1  0
M  END
> <COMPOUND_ID>
DNDI1416982

$$$$

  SciTegic04051205032D

 18 20  0  0  0  0            999 V2000
    7.8533   -6.4873    0.0000 C   0  0
    7.8609   -7.3112    0.0000 C   0  0
    7.1361   -6.0715    0.0000 C   0  0
    7.1400   -7.7270    0.0000 C   0  0
    6.4266   -6.4873    0.0000 C   0  0
    6.4305   -7.3151    0.0000 C   0  0
    8.5629   -6.0639    0.0000 C   0  0
    9.2838   -6.4758    0.0000 O   0  0
    8.5705   -7.7156    0.0000 C   0  0
    7.1324   -5.2475    0.0000 O   0  0
    7.1438   -8.5510    0.0000 O   0  0
    9.2838   -7.2998    0.0000 C   0  0
    5.7134   -6.0829    0.0000 C   0  0
    5.7134   -7.7308    0.0000 C   0  0
    8.5552   -5.2399    0.0000 C   0  0
   10.0009   -7.7118    0.0000 C   0  0
    5.0000   -6.4911    0.0000 C   0  0
    5.0000   -7.3188    0.0000 C   0  0
  2  1  2  0
  3  1  1  0
  4  2  1  0
  5  3  1  0
  6  5  1  0
  7  1  1  0
  8  7  1  0
  9  2  1  0
 10  3  2  0
 11  4  2  0
 12  8  1  0
 13  5  2  0
 14  6  2  0
 15  7  1  0
 16 12  1  0
 17 13  1  0
 18 14  1  0
 12  9  1  0
  6  4  1  0
 18 17  2  0
M  END
> <COMPOUND_ID>
DNDI1416983

$$$$

  SciTegic04051205032D

 18 20  0  0  0  0            999 V2000
    7.2213   -7.3441    0.0000 C   0  0
    7.7121   -8.0027    0.0000 C   0  0
    7.2213   -8.6936    0.0000 N   0  0
    7.4538   -6.5498    0.0000 C   0  0
    6.4271   -7.6088    0.0000 C   0  0
    6.4271   -8.4418    0.0000 C   0  0
    8.2546   -6.3754    0.0000 C   0  0
    8.5387   -8.0027    0.0000 O   0  0
    8.7970   -6.9888    0.0000 N   0  0
    9.6041   -6.8145    0.0000 O   0  0
    6.8920   -5.9621    0.0000 C   0  0
    5.6974   -7.1891    0.0000 C   0  0
    5.6974   -8.8486    0.0000 C   0  0
    8.4870   -5.6005    0.0000 C   0  0
    7.1438   -5.1743    0.0000 C   0  0
    5.0000   -7.6088    0.0000 C   0  0
    5.0000   -8.4418    0.0000 C   0  0
    7.9446   -5.0000    0.0000 C   0  0
  2  1  1  0
  3  2  1  0
  4  1  2  0
  5  1  1  0
  6  5  1  0
  7  4  1  0
  8  2  2  0
  9  7  2  0
 10  9  1  0
 11  4  1  0
 12  5  2  0
 13  6  2  0
 14  7  1  0
 15 11  1  0
 16 12  1  0
 17 16  2  0
 18 15  1  0
  3  6  1  0
 17 13  1  0
 18 14  1  0
M  END
> <COMPOUND_ID>
DNDI1416984

$$$$

  SciTegic04051205032D

 18 20  0  0  0  0            999 V2000
    6.4663   -6.2296    0.0000 C   0  0
    7.1959   -6.6372    0.0000 C   0  0
    7.9008   -6.2296    0.0000 C   0  0
    5.7297   -7.4558    0.0000 N   0  0
    5.7405   -6.6202    0.0000 C   0  0
    8.6192   -6.6372    0.0000 N   0  0
    6.4663   -5.4093    0.0000 C   0  0
    7.9008   -5.4093    0.0000 C   0  0
    7.1959   -5.0000    0.0000 C   0  0
    7.1959   -7.4558    0.0000 O   0  0
    6.4323   -7.8668    0.0000 C   0  0
    5.0000   -7.8668    0.0000 C   0  0
    9.3359   -6.2296    0.0000 C   0  0
    8.6192   -5.0000    0.0000 C   0  0
    9.3359   -5.4093    0.0000 C   0  0
    6.4215   -8.7024    0.0000 C   0  0
    5.0000   -8.6854    0.0000 C   0  0
    5.7184   -9.1134    0.0000 C   0  0
  2  1  2  0
  3  2  1  0
  4  5  1  0
  5  1  1  0
  6  3  1  0
  7  1  1  0
  8  9  1  0
  9  7  2  0
 10  2  1  0
 11  4  1  0
 12  4  1  0
 13  6  2  0
 14  8  1  0
 15 14  2  0
 16 11  1  0
 17 12  1  0
 18 17  1  0
  3  8  2  0
 13 15  1  0
 16 18  1  0
M  END
> <COMPOUND_ID>
DNDI1416985

$$$$

  SciTegic04051205032D

 18 19  0  0  0  0            999 V2000
    9.3779   -5.6333    0.0000 C   0  0
    7.8816   -5.6537    0.0000 N   0  0
    9.3779   -6.4457    0.0000 C   0  0
    6.4320   -6.4896    0.0000 N   0  0
    6.4320   -5.6771    0.0000 C   0  0
   10.1057   -5.2475    0.0000 C   0  0
    8.6385   -5.2689    0.0000 C   0  0
    7.1383   -5.2475    0.0000 N   0  0
   10.0910   -6.8607    0.0000 C   0  0
   10.8246   -5.6537    0.0000 C   0  0
   10.8246   -6.4603    0.0000 C   0  0
    8.6677   -6.8461    0.0000 O   0  0
   11.5435   -5.2543    0.0000 O   0  0
    5.7150   -6.9104    0.0000 C   0  0
    5.7150   -5.2543    0.0000 C   0  0
   12.2420   -5.6683    0.0000 C   0  0
    5.0000   -6.4896    0.0000 C   0  0
    5.0000   -5.6771    0.0000 C   0  0
  2  7  2  0
  3  1  2  0
  4  5  2  0
  5  8  1  0
  6  1  1  0
  7  1  1  0
  8  2  1  0
  9  3  1  0
 10  6  2  0
 11 10  1  0
 12  3  1  0
 13 10  1  0
 14  4  1  0
 15  5  1  0
 16 13  1  0
 17 18  1  0
 18 15  2  0
  9 11  2  0
 14 17  2  0
M  END
> <COMPOUND_ID>
DNDI1416986

$$$$

  SciTegic04051205032D

 18 20  0  0  0  0            999 V2000
    6.9771   -6.6549    0.0000 C   0  0
    6.2616   -6.2365    0.0000 C   0  0
    7.6989   -6.2365    0.0000 C   0  0
    6.2616   -5.4143    0.0000 C   0  0
    7.6989   -5.4143    0.0000 C   0  0
    6.9771   -5.0000    0.0000 C   0  0
    6.9771   -7.4855    0.0000 C   0  0
    7.6989   -7.8872    0.0000 C   0  0
    8.4186   -8.3056    0.0000 N   0  0
    8.4814   -6.4875    0.0000 C   0  0
    5.4770   -6.4875    0.0000 C   0  0
    8.4814   -5.1632    0.0000 C   0  0
    5.4770   -5.1632    0.0000 C   0  0
    8.9605   -5.8201    0.0000 C   0  0
    5.0000   -5.8201    0.0000 C   0  0
    8.1131   -7.1696    0.0000 C   0  0
    7.2825   -8.6090    0.0000 C   0  0
    9.1362   -7.8998    0.0000 C   0  0
  2  1  2  0
  3  1  1  0
  4  2  1  0
  5  3  2  0
  6  5  1  0
  7  1  1  0
  8  7  1  0
  9  8  1  0
 10  3  1  0
 11  2  1  0
 12  5  1  0
 13  4  1  0
 14 10  1  0
 15 11  1  0
 16  8  1  0
 17  8  1  0
 18  9  1  0
 12 14  1  0
  4  6  2  0
 13 15  1  0
M  END
> <COMPOUND_ID>
DNDI1416987

$$$$

  SciTegic04051205032D

 18 19  0  0  0  0            999 V2000
    7.0256   -6.4778    0.0000 C   0  0
    8.4548   -6.4778    0.0000 N   0  0
    6.3077   -6.0766    0.0000 C   0  0
    9.1693   -6.0766    0.0000 C   0  0
    7.7402   -6.0632    0.0000 O   0  0
    5.5527   -6.4036    0.0000 O   0  0
    9.8839   -6.4778    0.0000 C   0  0
    7.0256   -7.3035    0.0000 O   0  0
    6.2235   -5.2475    0.0000 C   0  0
    5.0000   -5.8036    0.0000 C   0  0
    5.4078   -5.0824    0.0000 C   0  0
    9.8839   -7.3035    0.0000 C   0  0
   10.5950   -6.0766    0.0000 C   0  0
    9.1693   -5.2475    0.0000 N   0  0
   11.3129   -6.4778    0.0000 C   0  0
   10.5950   -7.7215    0.0000 C   0  0
   11.3129   -7.3035    0.0000 C   0  0
   12.0275   -7.7215    0.0000 C   0  0
  2  5  1  0
  3  1  1  0
  4  2  2  0
  5  1  1  0
  6  3  1  0
  7  4  1  0
  8  1  2  0
  9  3  2  0
 10  6  1  0
 11  9  1  0
 12  7  1  0
 13  7  2  0
 14  4  1  0
 15 13  1  0
 16 12  2  0
 17 16  1  0
 18 17  1  0
 10 11  2  0
 17 15  2  0
M  END
> <COMPOUND_ID>
DNDI1416988

$$$$

  SciTegic04051205032D

 18 20  0  0  0  0            999 V2000
    6.4819   -7.5318    0.0000 N   0  0
    7.2094   -6.2670    0.0000 C   0  0
    7.2094   -7.0953    0.0000 C   0  0
    6.4819   -5.8753    0.0000 C   0  0
    5.7544   -6.3096    0.0000 C   0  0
    5.7544   -7.0953    0.0000 C   0  0
    7.9034   -7.5318    0.0000 C   0  0
    8.6309   -7.0953    0.0000 C   0  0
    5.5194   -5.0000    0.0000 N   0  0
    7.9034   -5.8753    0.0000 C   0  0
    8.6309   -6.3096    0.0000 C   0  0
    5.1410   -5.7477    0.0000 C   0  0
    6.3073   -5.0940    0.0000 C   0  0
    7.9034   -8.3601    0.0000 O   0  0
    9.4122   -5.9200    0.0000 O   0  0
    5.0000   -7.4892    0.0000 C   0  0
    7.2094   -8.7563    0.0000 C   0  0
   10.0837   -6.3588    0.0000 C   0  0
  2  3  1  0
  3  1  1  0
  4  5  2  0
  5  6  1  0
  6  1  2  0
  7  3  2  0
  8  7  1  0
  9 12  1  0
 10  2  2  0
 11  8  2  0
 12  5  1  0
 13  4  1  0
 14  7  1  0
 15 11  1  0
 16  6  1  0
 17 14  1  0
 18 15  1  0
  4  2  1  0
  9 13  1  0
 11 10  1  0
M  END
> <COMPOUND_ID>
DNDI1416989

$$$$

  SciTegic04051205032D

 18 19  0  0  0  0            999 V2000
    7.1393   -6.6649    0.0000 C   0  0
    6.4090   -7.0444    0.0000 N   0  0
    7.0099   -5.8684    0.0000 N   0  0
    5.8195   -6.4550    0.0000 C   0  0
    6.1933   -5.7505    0.0000 N   0  0
    7.9099   -6.9668    0.0000 C   0  0
    8.0480   -7.7834    0.0000 N   0  0
    8.8329   -8.0508    0.0000 C   0  0
    9.4713   -7.5160    0.0000 C   0  0
    8.5454   -6.4205    0.0000 O   0  0
    8.9710   -8.8703    0.0000 C   0  0
    5.0000   -6.5959    0.0000 N   0  0
   10.2447   -7.8122    0.0000 C   0  0
    9.7473   -9.1377    0.0000 C   0  0
    5.8195   -5.0000    0.0000 C   0  0
   10.3828   -8.6029    0.0000 C   0  0
    9.3419   -6.7080    0.0000 O   0  0
    9.8853   -9.9572    0.0000 C   0  0
  2  1  1  0
  3  1  2  0
  4  2  2  0
  5  3  1  0
  6  1  1  0
  7  6  1  0
  8  7  1  0
  9  8  1  0
 10  6  2  0
 11  8  2  0
 12  4  1  0
 13  9  2  0
 14 11  1  0
 15  5  1  0
 16 14  2  0
 17  9  1  0
 18 14  1  0
  4  5  1  0
 13 16  1  0
M  END
> <COMPOUND_ID>
DNDI1416990

$$$$

  SciTegic04051205032D

 19 20  0  0  0  0            999 V2000
    7.8886   -6.3381    0.0000 N   0  0
    5.8939   -8.4983    0.0000 N   0  0
   10.0626   -8.2942    0.0000 N   0  0
   10.0488   -7.4830    0.0000 C   0  0
    5.8414   -7.6872    0.0000 C   0  0
    8.6169   -6.7188    0.0000 N   0  0
   10.0405   -6.6636    0.0000 C   0  0
    5.7863   -6.8678    0.0000 C   0  0
    9.3039   -6.2746    0.0000 C   0  0
    7.2016   -6.7795    0.0000 N   0  0
    6.4650   -6.4043    0.0000 C   0  0
    5.0414   -6.4981    0.0000 C   0  0
   10.7523   -6.2084    0.0000 C   0  0
    9.2708   -5.4442    0.0000 C   0  0
    6.4236   -5.5711    0.0000 C   0  0
   10.7110   -5.3973    0.0000 C   0  0
    5.0000   -5.6704    0.0000 C   0  0
    5.6539   -5.2152    0.0000 C   0  0
    9.9550   -5.0000    0.0000 C   0  0
  2  5  3  0
  3  4  3  0
  4  7  1  0
  5  8  1  0
  6  1  2  0
  7  9  2  0
  8 11  1  0
  9  6  1  0
 10  1  1  0
 11 10  1  0
 12  8  2  0
 13  7  1  0
 14  9  1  0
 15 11  2  0
 16 19  1  0
 17 18  2  0
 18 15  1  0
 19 14  2  0
 12 17  1  0
 13 16  2  0
M  END
> <COMPOUND_ID>
DNDI1416991

$$$$

  SciTegic04051205032D

 17 19  0  0  0  0            999 V2000
    7.7010   -6.6999    0.0000 C   0  0
    8.5251   -6.6958    0.0000 C   0  0
    7.2182   -7.3700    0.0000 S   0  0
    7.2099   -6.0341    0.0000 C   0  0
    6.4275   -6.2963    0.0000 C   0  0
    9.0036   -6.0257    0.0000 N   0  0
    6.4316   -7.1203    0.0000 C   0  0
    9.0120   -7.3575    0.0000 O   0  0
    7.4596   -5.2475    0.0000 O   0  0
    9.7902   -6.2754    0.0000 C   0  0
    9.7944   -7.0994    0.0000 C   0  0
    5.7117   -5.8842    0.0000 C   0  0
    5.7117   -7.5364    0.0000 C   0  0
   10.4519   -5.7843    0.0000 C   0  0
    5.0000   -6.3003    0.0000 C   0  0
    5.0000   -7.1244    0.0000 C   0  0
   11.2094   -6.1173    0.0000 C   0  0
  2  1  2  0
  3  1  1  0
  4  1  1  0
  5  4  1  0
  6  2  1  0
  7  3  1  0
  8  2  1  0
  9  4  2  0
 10  6  1  0
 11  8  1  0
 12  5  2  0
 13  7  2  0
 14 10  1  0
 15 12  1  0
 16 13  1  0
 17 14  1  0
  5  7  1  0
 11 10  1  0
 15 16  2  0
M  END
> <COMPOUND_ID>
DNDI1416992

$$$$

  SciTegic04051205032D

 17 18  0  0  0  0            999 V2000
    7.6822   -6.6985    0.0000 C   0  0
    7.2161   -6.0258    0.0000 C   0  0
    9.7487   -7.4196    0.0000 C   0  0
    8.5000   -6.6985    0.0000 N   0  0
    6.4378   -6.2764    0.0000 C   0  0
    8.9221   -7.4196    0.0000 N   0  0
    6.4378   -7.1206    0.0000 C   0  0
    7.2161   -7.3800    0.0000 C   0  0
   10.1489   -8.1363    0.0000 S   0  0
   10.1489   -6.6985    0.0000 N   0  0
    7.4711   -5.2475    0.0000 O   0  0
    5.7167   -5.8807    0.0000 C   0  0
    5.7167   -7.5251    0.0000 C   0  0
    9.7487   -5.9862    0.0000 C   0  0
   10.9755   -6.7249    0.0000 C   0  0
    5.0000   -6.2764    0.0000 C   0  0
    5.0000   -7.1206    0.0000 C   0  0
  2  1  1  0
  3  6  1  0
  4  1  2  0
  5  2  1  0
  6  4  1  0
  7  8  1  0
  8  1  1  0
  9  3  2  0
 10  3  1  0
 11  2  2  0
 12  5  2  0
 13  7  2  0
 14 10  1  0
 15 10  1  0
 16 12  1  0
 17 13  1  0
  5  7  1  0
 16 17  2  0
M  END
> <COMPOUND_ID>
DNDI1416993

$$$$

  SciTegic04051205032D

 17 18  0  0  0  0            999 V2000
    6.4924   -7.2112    0.0000 C   0  0
    6.2345   -6.4271    0.0000 C   0  0
    5.8253   -7.6995    0.0000 S   0  0
    5.4127   -6.4271    0.0000 C   0  0
    5.1547   -7.2112    0.0000 N   0  0
    7.2077   -7.6238    0.0000 C   0  0
    7.9229   -7.2112    0.0000 C   0  0
    6.6471   -5.7118    0.0000 N   0  0
    7.2077   -8.4491    0.0000 O   0  0
    5.0000   -5.7118    0.0000 N   0  0
    7.9229   -6.3859    0.0000 C   0  0
    8.6347   -7.6238    0.0000 C   0  0
    9.3500   -7.2112    0.0000 C   0  0
    8.6347   -5.9767    0.0000 C   0  0
    9.3500   -6.3859    0.0000 C   0  0
    5.4127   -5.0000    0.0000 C   0  0
   10.0653   -5.9732    0.0000 C   0  0
  2  1  2  0
  3  1  1  0
  4  2  1  0
  5  3  1  0
  6  1  1  0
  7  6  1  0
  8  2  1  0
  9  6  2  0
 10  4  1  0
 11  7  2  0
 12  7  1  0
 13 12  2  0
 14 11  1  0
 15 13  1  0
 16 10  1  0
 17 15  1  0
  5  4  2  0
 14 15  2  0
M  END
> <COMPOUND_ID>
DNDI1416994

$$$$

  SciTegic04051205032D

 18 19  0  0  0  0            999 V2000
    9.2901   -7.0663    0.0000 N   0  0
    9.2901   -6.2403    0.0000 C   0  0
    7.8647   -7.0663    0.0000 C   0  0
    8.5719   -7.5028    0.0000 C   0  0
    8.5719   -5.8398    0.0000 N   0  0
    7.8647   -6.2403    0.0000 C   0  0
    7.1437   -7.5028    0.0000 C   0  0
    7.1437   -5.8398    0.0000 C   0  0
    6.4309   -7.0663    0.0000 C   0  0
    6.4309   -6.2403    0.0000 C   0  0
   10.0028   -5.8398    0.0000 N   0  0
    8.5719   -8.3398    0.0000 N   0  0
    5.7127   -7.5028    0.0000 O   0  0
    5.7127   -5.8398    0.0000 O   0  0
   10.0028   -5.0000    0.0000 C   0  0
   10.7597   -6.0221    0.0000 C   0  0
    5.0000   -6.2403    0.0000 C   0  0
    5.0000   -7.1050    0.0000 C   0  0
  2  1  2  0
  3  4  2  0
  4  1  1  0
  5  2  1  0
  6  5  2  0
  7  3  1  0
  8  6  1  0
  9  7  2  0
 10  8  2  0
 11  2  1  0
 12  4  1  0
 13  9  1  0
 14 10  1  0
 15 11  1  0
 16 11  1  0
 17 14  1  0
 18 13  1  0
  3  6  1  0
  9 10  1  0
M  END
> <COMPOUND_ID>
DNDI1416995

$$$$

  SciTegic04051205032D

 18 19  0  0  0  0            999 V2000
    7.2758   -6.6467    0.0000 C   0  0
    6.5676   -6.2342    0.0000 N   0  0
    8.7540   -6.6089    0.0000 N   0  0
    9.4656   -6.1998    0.0000 C   0  0
    8.0562   -6.2067    0.0000 O   0  0
    7.2655   -7.5474    0.0000 O   0  0
   10.1739   -6.6055    0.0000 C   0  0
    5.1650   -5.4057    0.0000 O   0  0
    9.4656   -5.3851    0.0000 N   0  0
    5.8663   -6.6364    0.0000 C   0  0
    6.5814   -5.4125    0.0000 C   0  0
    5.1582   -6.2239    0.0000 C   0  0
    5.8698   -5.0000    0.0000 C   0  0
   10.1739   -7.4236    0.0000 C   0  0
   10.8785   -6.1998    0.0000 C   0  0
   11.5868   -6.6055    0.0000 C   0  0
   10.8785   -7.8293    0.0000 C   0  0
   11.5902   -7.4236    0.0000 C   0  0
  2  1  1  0
  3  5  1  0
  4  3  2  0
  5  1  1  0
  6  1  2  0
  7  4  1  0
  8 13  1  0
  9  4  1  0
 10  2  1  0
 11  2  1  0
 12 10  1  0
 13 11  1  0
 14  7  1  0
 15  7  2  0
 16 15  1  0
 17 14  2  0
 18 16  2  0
 12  8  1  0
 17 18  1  0
M  END
> <COMPOUND_ID>
DNDI1416996

$$$$

  SciTegic04051205032D

 19 21  0  0  0  0            999 V2000
    8.5739   -6.6662    0.0000 N   0  0
    7.1334   -6.6662    0.0000 C   0  0
    7.8458   -6.2575    0.0000 C   0  0
    8.5739   -7.4877    0.0000 N   0  0
    6.4249   -6.2575    0.0000 C   0  0
    9.2824   -7.8965    0.0000 C   0  0
    9.9948   -7.4877    0.0000 N   0  0
    7.8458   -5.4166    0.0000 C   0  0
    6.4249   -5.4166    0.0000 C   0  0
    7.1334   -5.0000    0.0000 C   0  0
    7.1334   -7.4877    0.0000 O   0  0
    5.7124   -6.6662    0.0000 C   0  0
   10.6995   -7.8965    0.0000 C   0  0
    9.2824   -8.7218    0.0000 C   0  0
    5.7124   -5.0000    0.0000 C   0  0
    5.0000   -6.2575    0.0000 C   0  0
   10.6995   -8.7218    0.0000 C   0  0
    9.9948   -9.1345    0.0000 C   0  0
    5.0000   -5.4166    0.0000 C   0  0
  2  3  1  0
  3  1  1  0
  4  1  2  0
  5  2  2  0
  6  4  1  0
  7  6  2  0
  8  3  2  0
  9 10  2  0
 10  8  1  0
 11  2  1  0
 12  5  1  0
 13  7  1  0
 14  6  1  0
 15  9  1  0
 16 12  2  0
 17 18  1  0
 18 14  2  0
 19 15  2  0
  5  9  1  0
 13 17  2  0
 16 19  1  0
M  END
> <COMPOUND_ID>
DNDI1416997

$$$$

  SciTegic04051205032D

 19 20  0  0  0  0            999 V2000
    7.5991   -7.0738    0.0000 C   0  0
    7.6655   -8.4805    0.0000 C   0  0
    6.7637   -7.1403    0.0000 C   0  0
    6.8603   -8.5204    0.0000 C   0  0
    8.0385   -7.7550    0.0000 C   0  0
    8.8571   -7.7284    0.0000 N   0  0
    6.3102   -6.4404    0.0000 C   0  0
    6.4927   -9.2592    0.0000 C   0  0
    9.2309   -7.0144    0.0000 O   0  0
    6.6734   -5.6909    0.0000 C   0  0
    5.5014   -6.4909    0.0000 C   0  0
    6.9551   -9.9608    0.0000 C   0  0
    5.6768   -9.3300    0.0000 C   0  0
    5.0000   -5.8114    0.0000 C   0  0
    6.5937  -10.6996    0.0000 C   0  0
    5.3127  -10.0644    0.0000 C   0  0
    6.1897   -5.0000    0.0000 C   0  0
    5.3800   -5.0558    0.0000 C   0  0
    5.7565  -10.7501    0.0000 C   0  0
  2  5  1  0
  3  1  2  0
  4  2  2  0
  5  1  1  0
  6  5  2  0
  7  3  1  0
  8  4  1  0
  9  6  1  0
 10  7  1  0
 11  7  2  0
 12  8  2  0
 13  8  1  0
 14 11  1  0
 15 12  1  0
 16 13  2  0
 17 10  2  0
 18 14  2  0
 19 16  1  0
 17 18  1  0
 19 15  2  0
M  END
> <COMPOUND_ID>
DNDI1416998

$$$$

  SciTegic04051205032D

 19 21  0  0  0  0            999 V2000
    8.7116   -5.7204    0.0000 N   0  3
    8.2996   -6.4408    0.0000 C   0  0
    7.4695   -6.4408    0.0000 C   0  0
    9.5358   -5.7204    0.0000 C   0  0
    9.5417   -7.1464    0.0000 N   0  0
    8.7176   -7.1464    0.0000 C   0  0
    7.0663   -7.1464    0.0000 C   0  0
    7.0663   -5.7204    0.0000 C   0  0
    9.9479   -6.4260    0.0000 C   0  0
    6.2421   -7.1464    0.0000 C   0  0
    8.2758   -5.0119    0.0000 C   0  0
    6.2421   -5.7204    0.0000 C   0  0
    5.8241   -6.4408    0.0000 C   0  0
    9.9331   -5.0000    0.0000 C   0  0
    7.4695   -7.8786    0.0000 C   0  0
   10.7691   -6.4260    0.0000 C   0  0
    5.0000   -6.4408    0.0000 C   0  0
   10.7572   -5.0000    0.0000 C   0  0
   11.1812   -5.7085    0.0000 C   0  0
  2  1  2  0
  3  2  1  0
  4  1  1  0
  5  9  1  0
  6  2  1  0
  7  3  2  0
  8  3  1  0
  9  4  1  0
 10  7  1  0
 11  1  1  0
 12  8  2  0
 13 12  1  0
 14  4  2  0
 15  7  1  0
 16  9  2  0
 17 13  1  0
 18 14  1  0
 19 18  2  0
  5  6  2  0
 19 16  1  0
 13 10  2  0
M  CHG  1   1   1
M  END
> <COMPOUND_ID>
DNDI1416999

$$$$

  SciTegic04051205032D

 19 22  0  0  0  0            999 V2000
    7.8735   -6.2705    0.0000 C   0  0
    7.8735   -7.1175    0.0000 C   0  0
    7.1557   -5.8853    0.0000 C   0  0
    8.5961   -5.8853    0.0000 C   0  0
    7.1557   -7.5410    0.0000 C   0  0
    6.4379   -6.3088    0.0000 C   0  0
    6.4379   -7.1175    0.0000 C   0  0
    9.3138   -6.3088    0.0000 C   0  0
    8.5961   -7.5410    0.0000 C   0  0
    8.7731   -5.0766    0.0000 N   0  0
    9.5961   -5.0000    0.0000 O   0  0
    9.9287   -5.7322    0.0000 N   0  0
    9.3138   -7.1175    0.0000 C   0  0
    7.1557   -5.0383    0.0000 O   0  0
    7.1557   -8.3497    0.0000 O   0  0
    5.7178   -5.8853    0.0000 C   0  0
    5.7178   -7.5027    0.0000 C   0  0
    5.0000   -6.3088    0.0000 C   0  0
    5.0000   -7.0816    0.0000 C   0  0
  2  1  2  0
  3  1  1  0
  4  1  1  0
  5  2  1  0
  6  3  1  0
  7  6  2  0
  8  4  1  0
  9  2  1  0
 10  4  2  0
 11 10  1  0
 12  8  2  0
 13  9  2  0
 14  3  2  0
 15  5  2  0
 16  6  1  0
 17  7  1  0
 18 16  2  0
 19 17  2  0
  7  5  1  0
 13  8  1  0
 11 12  1  0
 19 18  1  0
M  END
> <COMPOUND_ID>
DNDI1417000

$$$$

  SciTegic04051205032D

 19 21  0  0  0  0            999 V2000
    7.6796   -6.6853    0.0000 N   0  0
    7.2014   -7.3594    0.0000 C   0  0
    7.2014   -6.0489    0.0000 C   0  0
    8.4878   -6.6853    0.0000 N   0  0
    6.4275   -7.1187    0.0000 C   0  0
    6.4275   -6.2863    0.0000 C   0  0
    7.4800   -8.1540    0.0000 O   0  0
    7.4800   -5.2475    0.0000 O   0  0
    8.8972   -7.4007    0.0000 C   0  0
    9.7399   -7.4007    0.0000 C   0  0
    5.7120   -5.8735    0.0000 C   0  0
    5.7120   -7.5280    0.0000 C   0  0
   10.1526   -8.1093    0.0000 C   0  0
   10.1526   -6.6853    0.0000 C   0  0
    5.0000   -6.3069    0.0000 C   0  0
    5.0000   -7.0981    0.0000 C   0  0
   11.0126   -8.1093    0.0000 C   0  0
   10.9920   -6.6853    0.0000 C   0  0
   11.4012   -7.4007    0.0000 C   0  0
  2  1  1  0
  3  1  1  0
  4  1  1  0
  5  2  1  0
  6  3  1  0
  7  2  2  0
  8  3  2  0
  9  4  2  0
 10  9  1  0
 11  6  1  0
 12  5  1  0
 13 10  2  0
 14 10  1  0
 15 11  2  0
 16 12  2  0
 17 13  1  0
 18 14  2  0
 19 18  1  0
  6  5  2  0
 15 16  1  0
 17 19  2  0
M  END
> <COMPOUND_ID>
DNDI1417001

$$$$

  SciTegic04051205032D

 19 21  0  0  0  0            999 V2000
    7.7599   -8.5767    0.0000 C   0  0
    7.7599   -7.7801    0.0000 C   0  0
    6.3800   -7.7801    0.0000 C   0  0
    7.0680   -8.9791    0.0000 N   0  0
    7.0680   -7.3818    0.0000 C   0  0
    6.3800   -8.5808    0.0000 C   0  0
    9.1440   -8.5808    0.0000 N   0  0
    8.4520   -8.9791    0.0000 N   0  0
    9.1440   -7.7801    0.0000 C   0  0
    5.6920   -7.3859    0.0000 C   0  0
    5.0000   -6.9876    0.0000 N   0  0
    7.0680   -6.5852    0.0000 C   0  0
    5.6880   -8.9791    0.0000 N   0  0
    9.7113   -7.2209    0.0000 N   0  0
    7.7519   -6.1910    0.0000 C   0  0
    6.3760   -6.1990    0.0000 C   0  0
    7.7519   -5.3944    0.0000 C   0  0
    6.3680   -5.4024    0.0000 C   0  0
    7.0599   -5.0000    0.0000 C   0  0
  2  1  1  0
  3  6  2  0
  4  1  2  0
  5  2  2  0
  6  4  1  0
  7  8  1  0
  8  1  1  0
  9  2  1  0
 10  3  1  0
 11 10  3  0
 12  5  1  0
 13  6  1  0
 14  9  1  0
 15 12  2  0
 16 12  1  0
 17 15  1  0
 18 16  2  0
 19 18  1  0
  7  9  2  0
  3  5  1  0
 19 17  2  0
M  END
> <COMPOUND_ID>
DNDI1417002

$$$$

  SciTegic04051205032D

 19 21  0  0  0  0            999 V2000
    7.6878   -6.5560    0.0000 C   0  0
    7.4253   -7.3477    0.0000 C   0  0
    7.9711   -7.9645    0.0000 N   0  0
    9.0505   -7.0144    0.0000 C   0  0
    7.0169   -6.0726    0.0000 C   0  0
    8.7879   -7.7978    0.0000 C   0  0
    8.4962   -6.3893    0.0000 C   0  0
    6.6085   -7.3436    0.0000 C   0  0
    6.3544   -6.5601    0.0000 C   0  0
    9.8589   -6.8477    0.0000 C   0  0
   10.6674   -6.6769    0.0000 N   0  0
    7.0169   -5.2475    0.0000 O   0  0
    7.7128   -8.7438    0.0000 C   0  0
    9.3297   -8.4188    0.0000 C   0  0
    6.0584   -7.9520    0.0000 C   0  0
    8.7587   -5.6059    0.0000 C   0  0
    5.5501   -6.3893    0.0000 C   0  0
    5.2542   -7.7812    0.0000 C   0  0
    5.0000   -6.9977    0.0000 C   0  0
  2  1  2  0
  3  2  1  0
  4  7  1  0
  5  1  1  0
  6  4  2  0
  7  1  1  0
  8  2  1  0
  9  5  1  0
 10  4  1  0
 11 10  3  0
 12  5  2  0
 13  3  1  0
 14  6  1  0
 15  8  1  0
 16  7  1  0
 17  9  1  0
 18 15  2  0
 19 17  2  0
  9  8  2  0
  6  3  1  0
 19 18  1  0
M  END
> <COMPOUND_ID>
DNDI1417003

$$$$

  SciTegic04051205032D

 19 21  0  0  0  0            999 V2000
    7.1354   -7.1770    0.0000 C   0  0
    6.4320   -8.4175    0.0000 N   0  0
    7.2145   -6.3487    0.0000 N   0  0
    6.4320   -7.5849    0.0000 C   0  0
    7.8888   -7.5059    0.0000 N   0  0
    5.7118   -8.8337    0.0000 C   0  0
    8.4382   -6.8981    0.0000 C   0  0
    8.0304   -6.1780    0.0000 C   0  0
    5.0000  -10.0574    0.0000 N   0  0
    5.7160   -9.6579    0.0000 C   0  0
    6.6026   -5.8034    0.0000 C   0  0
    5.7118   -7.1770    0.0000 C   0  0
    5.0000   -8.4175    0.0000 C   0  0
    5.0000   -7.5974    0.0000 C   0  0
    5.0000  -10.8816    0.0000 C   0  0
    6.4320  -10.0574    0.0000 C   0  0
    6.7732   -5.0000    0.0000 C   0  0
    5.7118  -11.3021    0.0000 C   0  0
    6.4320  -10.8816    0.0000 C   0  0
  2  4  1  0
  3  1  1  0
  4  1  1  0
  5  1  2  0
  6  2  2  0
  7  5  1  0
  8  3  1  0
  9 10  2  0
 10  6  1  0
 11  3  1  0
 12  4  2  0
 13 14  2  0
 14 12  1  0
 15  9  1  0
 16 10  1  0
 17 11  1  0
 18 15  2  0
 19 16  2  0
  7  8  2  0
 13  6  1  0
 18 19  1  0
M  END
> <COMPOUND_ID>
DNDI1417004

$$$$

  SciTegic04051205032D

 19 21  0  0  0  0            999 V2000
    8.3492   -6.8942    0.0000 N   0  0
    7.6893   -6.4104    0.0000 C   0  0
    9.0078   -6.4104    0.0000 C   0  0
    8.7585   -5.6079    0.0000 C   0  0
    7.9460   -5.6079    0.0000 C   0  0
    9.8154   -6.5816    0.0000 C   0  0
    6.8594   -6.5704    0.0000 C   0  0
    6.3062   -5.9428    0.0000 C   0  0
   10.3773   -5.9676    0.0000 C   0  0
    9.3093   -5.0112    0.0000 C   0  0
    7.3742   -5.0000    0.0000 C   0  0
    5.5011   -6.0979    0.0000 C   0  0
   11.1848   -6.1388    0.0000 C   0  0
    6.5630   -5.1774    0.0000 C   0  0
   10.1280   -5.1861    0.0000 C   0  0
   11.8211   -5.5806    0.0000 O   0  0
    5.1302   -6.8607    0.0000 O   0  0
   11.4118   -6.8942    0.0000 C   0  0
    5.0000   -5.4950    0.0000 C   0  0
  2  1  1  0
  3  1  1  0
  4  3  2  0
  5  2  2  0
  6  3  1  0
  7  2  1  0
  8  7  2  0
  9  6  2  0
 10  4  1  0
 11  5  1  0
 12  8  1  0
 13  9  1  0
 14  8  1  0
 15  9  1  0
 16 13  2  0
 17 12  2  0
 18 13  1  0
 19 12  1  0
  5  4  1  0
 10 15  2  0
 14 11  2  0
M  END
> <COMPOUND_ID>
DNDI1417005

$$$$

  SciTegic04051205032D

 19 21  0  0  0  0            999 V2000
    7.1616   -6.2293    0.0000 C   0  0
    7.1616   -7.0451    0.0000 C   0  0
    7.8851   -5.8203    0.0000 C   0  0
    8.6020   -6.2293    0.0000 C   0  0
    7.8851   -7.4541    0.0000 N   0  0
    6.4447   -7.4541    0.0000 N   0  0
    6.4447   -5.8203    0.0000 C   0  0
    8.6020   -7.0451    0.0000 C   0  0
    5.7257   -6.2293    0.0000 C   0  0
    9.3210   -5.8203    0.0000 C   0  0
    5.7257   -7.0451    0.0000 C   0  0
    7.8851   -5.0000    0.0000 N   0  0
    9.3210   -7.4541    0.0000 C   0  0
   10.0379   -6.2293    0.0000 C   0  0
   10.0379   -7.0451    0.0000 C   0  0
    6.4447   -5.0000    0.0000 C   0  0
    5.0000   -7.4541    0.0000 C   0  0
   10.7614   -5.8203    0.0000 C   0  0
   11.4805   -6.2425    0.0000 C   0  0
  2  1  2  0
  3  1  1  0
  4  3  2  0
  5  2  1  0
  6  2  1  0
  7  1  1  0
  8  4  1  0
  9  7  2  0
 10  4  1  0
 11  9  1  0
 12  3  1  0
 13  8  1  0
 14 10  2  0
 15 13  2  0
 16  7  1  0
 17 11  1  0
 18 14  1  0
 19 18  1  0
 11  6  2  0
  8  5  2  0
 14 15  1  0
M  END
> <COMPOUND_ID>
DNDI1417006

$$$$

  SciTegic04051205032D

 19 21  0  0  0  0            999 V2000
    7.3212   -7.6478    0.0000 N   0  3
    7.7905   -6.9914    0.0000 C   0  0
    6.5601   -7.4068    0.0000 C   0  0
    7.3148   -6.3350    0.0000 C   0  0
    8.5991   -6.9914    0.0000 C   0  0
    6.5443   -6.5982    0.0000 C   0  0
    9.0050   -7.6859    0.0000 C   0  0
    7.5812   -8.4247    0.0000 C   0  0
    5.9355   -6.0655    0.0000 C   0  0
    9.8073   -7.6954    0.0000 N   0  0
    5.8594   -7.8254    0.0000 C   0  0
    7.4734   -5.5422    0.0000 C   0  0
    6.8487   -5.0000    0.0000 C   0  0
    5.0000   -7.1246    0.0000 C   0  0
    6.0877   -5.2664    0.0000 C   0  0
    5.1554   -6.3255    0.0000 C   0  0
   10.2068   -8.3993    0.0000 C   0  0
   10.2226   -7.0104    0.0000 C   0  0
    7.0390   -9.0335    0.0000 C   0  0
  2  1  2  0
  3  1  1  0
  4  2  1  0
  5  2  1  0
  6  3  1  0
  7  5  2  0
  8  1  1  0
  9  6  1  0
 10  7  1  0
 11  3  2  0
 12  4  1  0
 13 12  2  0
 14 11  1  0
 15  9  2  0
 16 14  2  0
 17 10  1  0
 18 10  1  0
 19  8  1  0
  6  4  2  0
  9 16  1  0
 15 13  1  0
M  CHG  1   1   1
M  END
> <COMPOUND_ID>
DNDI1417007

$$$$

  SciTegic04051205032D

 19 21  0  0  0  0            999 V2000
    7.5519   -8.0664    0.0000 C   0  0
    6.8484   -8.5011    0.0000 C   0  0
    8.2787   -8.5011    0.0000 C   0  0
    7.3562   -7.2666    0.0000 C   0  0
    6.2212   -7.9137    0.0000 N   0  0
    6.5597   -7.1936    0.0000 C   0  0
    8.2787   -9.3274    0.0000 C   0  0
    6.8484   -9.3274    0.0000 C   0  0
    7.5519   -9.7422    0.0000 C   0  0
    9.0122   -8.0664    0.0000 N   0  0
    8.9889   -9.7422    0.0000 N   0  0
    6.1913   -6.4602    0.0000 C   0  0
    9.0122   -7.2401    0.0000 O   0  0
    8.9889  -10.5719    0.0000 O   0  0
    6.6526   -5.8065    0.0000 C   0  0
    5.3650   -6.4138    0.0000 C   0  0
    6.2876   -5.0763    0.0000 C   0  0
    5.0000   -5.6803    0.0000 C   0  0
    5.4612   -5.0000    0.0000 C   0  0
  2  1  2  0
  3  1  1  0
  4  1  1  0
  5  2  1  0
  6  4  2  0
  7  3  1  0
  8  2  1  0
  9  7  1  0
 10  3  2  0
 11  7  2  0
 12  6  1  0
 13 10  1  0
 14 11  1  0
 15 12  1  0
 16 12  2  0
 17 15  2  0
 18 16  1  0
 19 18  2  0
  6  5  1  0
  9  8  2  0
 19 17  1  0
M  END
> <COMPOUND_ID>
DNDI1417008

$$$$

  SciTegic04051205032D

 19 20  0  0  0  0            999 V2000
    7.8417   -7.1522    0.0000 C   0  0
    7.4437   -7.8747    0.0000 C   0  0
    7.4158   -6.4399    0.0000 C   0  0
    7.8417   -8.5921    0.0000 O   0  0
    8.6782   -7.1522    0.0000 C   0  0
    6.6071   -7.8747    0.0000 C   0  0
    7.8417   -5.7175    0.0000 N   0  0
    9.0787   -6.4678    0.0000 C   0  0
    9.0787   -7.9026    0.0000 C   0  0
    6.2066   -7.1522    0.0000 C   0  0
    6.2066   -8.5921    0.0000 C   0  0
    7.4158   -5.0000    0.0000 C   0  0
    8.6782   -5.7175    0.0000 C   0  0
    9.9152   -7.9026    0.0000 C   0  0
    9.8874   -6.4678    0.0000 C   0  0
    5.3701   -7.1522    0.0000 C   0  0
    5.3979   -8.5921    0.0000 C   0  0
   10.2854   -7.1522    0.0000 C   0  0
    5.0000   -7.8747    0.0000 C   0  0
  2  1  1  0
  3  1  1  0
  4  2  2  0
  5  1  1  0
  6  2  1  0
  7  3  1  0
  8  5  2  0
  9  5  1  0
 10  6  2  0
 11  6  1  0
 12  7  1  0
 13  7  1  0
 14  9  2  0
 15  8  1  0
 16 10  1  0
 17 11  2  0
 18 15  2  0
 19 17  1  0
 18 14  1  0
 19 16  2  0
M  END
> <COMPOUND_ID>
DNDI1417009

$$$$

  SciTegic04051205032D

 18 21  0  0  0  0            999 V2000
    7.1048   -5.6328    0.0000 S   0  0
    7.9351   -5.7406    0.0000 C   0  0
    7.9643   -7.2260    0.0000 C   0  0
    8.3794   -6.4900    0.0000 C   0  0
    6.5012   -6.2365    0.0000 C   0  0
    7.1587   -7.3472    0.0000 C   0  0
    6.5012   -6.7975    0.0000 C   0  0
    9.2635   -7.9643    0.0000 N   0  0
    9.2366   -6.4900    0.0000 C   0  0
    8.3929   -7.9508    0.0000 C   0  0
    9.6787   -7.2260    0.0000 C   0  0
    8.3525   -5.0000    0.0000 C   0  0
    9.2366   -5.0157    0.0000 C   0  0
    5.7495   -5.8325    0.0000 C   0  0
    5.7786   -7.2395    0.0000 C   0  0
    9.6540   -5.7406    0.0000 C   0  0
    5.0247   -6.8379    0.0000 C   0  0
    5.0000   -6.2903    0.0000 C   0  0
  2  1  1  0
  3  4  1  0
  4  2  2  0
  5  1  1  0
  6  7  1  0
  7  5  2  0
  8 11  1  0
  9  4  1  0
 10  3  1  0
 11  9  1  0
 12  2  1  0
 13 12  2  0
 14  5  1  0
 15  7  1  0
 16 13  1  0
 17 15  2  0
 18 14  2  0
  6  3  1  0
 18 17  1  0
 16  9  2  0
  8 10  1  0
M  END
> <COMPOUND_ID>
DNDI1417010

$$$$

  SciTegic04051205032D

 17 18  0  0  0  0            999 V2000
    7.8571   -7.4697    0.0000 N   0  0
    7.1449   -7.8820    0.0000 C   0  0
    6.4244   -7.4697    0.0000 C   0  0
    9.2857   -6.6451    0.0000 N   0  0
    7.1449   -8.7109    0.0000 C   0  0
    8.5735   -7.8737    0.0000 C   0  0
    7.8488   -6.6451    0.0000 C   0  0
    6.4244   -9.1232    0.0000 C   0  0
    5.7122   -7.8820    0.0000 C   0  0
    8.5693   -6.2327    0.0000 C   0  0
    9.2857   -7.4697    0.0000 C   0  0
    5.7122   -8.7109    0.0000 C   0  0
    5.0000   -7.4697    0.0000 Cl  0  0
   10.7101   -5.0000    0.0000 N   0  0
    9.9979   -6.2327    0.0000 C   0  0
    7.8613   -9.1232    0.0000 C   0  0
    9.9979   -5.4123    0.0000 C   0  0
  2  1  1  0
  3  2  2  0
  4 10  1  0
  5  2  1  0
  6  1  1  0
  7  1  1  0
  8  5  2  0
  9  3  1  0
 10  7  1  0
 11  6  1  0
 12  8  1  0
 13  9  1  0
 14 17  1  0
 15  4  1  0
 16  5  1  0
 17 15  1  0
  4 11  1  0
 12  9  2  0
M  END
> <COMPOUND_ID>
DNDI1417011

$$$$

  SciTegic04051205032D

 19 21  0  0  0  0            999 V2000
    7.6409   -6.4659    0.0000 C   0  0
    8.3603   -7.7010    0.0000 C   0  0
    7.6409   -7.2935    0.0000 C   0  0
    6.9297   -6.0542    0.0000 C   0  0
    8.3520   -6.0542    0.0000 O   0  0
    9.0714   -6.4701    0.0000 C   0  0
    9.0714   -7.2935    0.0000 C   0  0
    6.9297   -7.7010    0.0000 C   0  0
    6.2144   -6.4701    0.0000 C   0  0
    8.3603   -8.5286    0.0000 C   0  0
    9.7867   -6.0542    0.0000 O   0  0
    6.2144   -7.2935    0.0000 C   0  0
    6.9297   -5.2475    0.0000 O   0  0
    5.4950   -6.0542    0.0000 O   0  0
    9.0714   -8.9403    0.0000 C   0  0
    7.6409   -8.9403    0.0000 C   0  0
    7.6409   -9.7762    0.0000 C   0  0
    9.0714   -9.7637    0.0000 C   0  0
    8.3520  -10.1879    0.0000 C   0  0
  2  3  1  0
  3  1  1  0
  4  1  2  0
  5  1  1  0
  6  5  1  0
  7  6  1  0
  8  3  2  0
  9  4  1  0
 10  2  1  0
 11  6  2  0
 12  9  2  0
 13  4  1  0
 14  9  1  0
 15 10  1  0
 16 10  2  0
 17 16  1  0
 18 15  2  0
 19 17  2  0
  7  2  2  0
  8 12  1  0
 19 18  1  0
M  END
> <COMPOUND_ID>
DNDI1417012

$$$$

  SciTegic04051205032D

 19 20  0  0  0  0            999 V2000
    8.6179   -6.5843    0.0000 N   0  0
    7.1245   -6.6342    0.0000 C   0  0
    9.3261   -6.1848    0.0000 C   0  0
    7.9098   -6.1848    0.0000 O   0  0
    6.4163   -6.2166    0.0000 C   0  0
    7.1109   -7.5240    0.0000 O   0  0
   10.0342   -6.5843    0.0000 C   0  0
    5.7082   -6.6342    0.0000 C   0  0
    9.3261   -5.3677    0.0000 N   0  0
    6.4163   -5.3995    0.0000 C   0  0
    5.7082   -7.4513    0.0000 C   0  0
   10.0342   -7.4014    0.0000 C   0  0
   10.7424   -6.1848    0.0000 C   0  0
    5.0000   -6.2030    0.0000 C   0  0
    5.7218   -5.0000    0.0000 C   0  0
    5.0000   -5.3859    0.0000 C   0  0
   10.7424   -7.8190    0.0000 C   0  0
   11.4506   -6.5843    0.0000 C   0  0
   11.4506   -7.4014    0.0000 C   0  0
  2  4  1  0
  3  1  2  0
  4  1  1  0
  5  2  1  0
  6  2  2  0
  7  3  1  0
  8  5  1  0
  9  3  1  0
 10  5  2  0
 11  8  1  0
 12  7  1  0
 13  7  2  0
 14  8  2  0
 15 10  1  0
 16 15  2  0
 17 12  2  0
 18 13  1  0
 19 18  2  0
 17 19  1  0
 16 14  1  0
M  END
> <COMPOUND_ID>
DNDI1417013

$$$$

  SciTegic04051205032D

 19 20  0  0  0  0            999 V2000
    9.2882   -6.2450    0.0000 C   0  0
    8.5727   -6.6408    0.0000 N   0  0
    7.1493   -6.6408    0.0000 C   0  0
    7.8649   -6.2319    0.0000 O   0  0
    6.4338   -6.2450    0.0000 C   0  0
   10.0064   -6.6408    0.0000 C   0  0
   10.7246   -6.2450    0.0000 N   0  0
    7.1493   -7.4796    0.0000 O   0  0
    5.7156   -6.6408    0.0000 C   0  0
    9.3013   -5.4193    0.0000 N   0  0
    6.4338   -5.4193    0.0000 C   0  0
   11.4428   -6.6513    0.0000 C   0  0
   10.0064   -7.4691    0.0000 C   0  0
    5.7156   -7.4691    0.0000 C   0  0
    5.0000   -6.2450    0.0000 C   0  0
    5.7156   -5.0000    0.0000 C   0  0
   11.4428   -7.4796    0.0000 C   0  0
    5.0000   -5.4193    0.0000 C   0  0
   10.7246   -7.8885    0.0000 C   0  0
  2  1  2  0
  3  4  1  0
  4  2  1  0
  5  3  1  0
  6  1  1  0
  7  6  2  0
  8  3  2  0
  9  5  2  0
 10  1  1  0
 11  5  1  0
 12  7  1  0
 13  6  1  0
 14  9  1  0
 15  9  1  0
 16 11  2  0
 17 19  1  0
 18 16  1  0
 19 13  2  0
 12 17  2  0
 15 18  2  0
M  END
> <COMPOUND_ID>
DNDI1417014

$$$$

  SciTegic04051205032D

 19 20  0  0  0  0            999 V2000
    9.3271   -6.5844    0.0000 N   0  0
    7.8321   -6.6360    0.0000 C   0  0
   10.0351   -6.1858    0.0000 C   0  0
    8.6191   -6.1858    0.0000 O   0  0
    7.1240   -6.2167    0.0000 C   0  0
    7.8183   -7.5262    0.0000 O   0  0
    6.4160   -6.6360    0.0000 C   0  0
   12.1488   -7.4024    0.0000 N   0  0
   10.7431   -6.5844    0.0000 C   0  0
   10.0351   -5.3678    0.0000 N   0  0
    5.7081   -6.2029    0.0000 C   0  0
    7.1240   -5.4021    0.0000 C   0  0
    6.4298   -5.0000    0.0000 C   0  0
   12.1591   -6.5844    0.0000 C   0  0
   11.4511   -7.8217    0.0000 C   0  0
   11.4511   -6.1858    0.0000 C   0  0
   10.7431   -7.4024    0.0000 C   0  0
    5.7081   -5.3884    0.0000 C   0  0
    5.0000   -6.6223    0.0000 C   0  0
  2  4  1  0
  3  1  2  0
  4  1  1  0
  5  2  1  0
  6  2  2  0
  7  5  1  0
  8 15  1  0
  9  3  1  0
 10  3  1  0
 11  7  2  0
 12  5  2  0
 13 12  1  0
 14 16  1  0
 15 17  2  0
 16  9  2  0
 17  9  1  0
 18 13  2  0
 19 11  1  0
 14  8  2  0
 11 18  1  0
M  END
> <COMPOUND_ID>
DNDI1417015

$$$$

  SciTegic04051205032D

 18 20  0  0  0  0            999 V2000
    6.6586   -7.1565    0.0000 C   0  0
    7.4747   -7.1445    0.0000 N   0  0
    8.6906   -7.8865    0.0000 C   0  0
    7.8720   -7.8721    0.0000 N   0  0
    9.2506   -8.5111    0.0000 N   0  0
    6.2517   -6.4289    0.0000 C   0  0
    9.1094   -7.1709    0.0000 S   0  0
    6.2110   -7.8458    0.0000 C   0  0
    9.9902   -8.1665    0.0000 C   0  0
    9.9279   -7.3600    0.0000 C   0  0
    5.4212   -6.4289    0.0000 C   0  0
    5.4212   -7.8458    0.0000 C   0  0
    5.0000   -7.1302    0.0000 C   0  0
    6.6083   -8.5997    0.0000 O   0  0
    6.6706   -5.7277    0.0000 C   0  0
    5.0119   -5.7157    0.0000 C   0  0
    6.2637   -5.0000    0.0000 C   0  0
    5.4475   -5.0000    0.0000 C   0  0
  2  1  1  0
  3  4  1  0
  4  2  2  0
  5  3  2  0
  6  1  2  0
  7  3  1  0
  8  1  1  0
  9  5  1  0
 10  7  1  0
 11  6  1  0
 12  8  2  0
 13 12  1  0
 14  8  1  0
 15  6  1  0
 16 11  1  0
 17 15  2  0
 18 17  1  0
 13 11  2  0
 18 16  2  0
 10  9  2  0
M  END
> <COMPOUND_ID>
DNDI1417016

$$$$

  SciTegic04051205032D

 19 21  0  0  0  0            999 V2000
    8.4071   -6.2125    0.0000 C   0  0
    7.7328   -6.5971    0.0000 N   0  0
    8.4071   -5.4512    0.0000 C   0  0
    7.0593   -5.4512    0.0000 C   0  0
    7.0593   -6.2125    0.0000 C   0  0
    9.1245   -6.6553    0.0000 C   0  0
    9.1245   -7.4767    0.0000 N   0  0
    9.8318   -7.8823    0.0000 N   0  0
   10.5390   -7.4666    0.0000 C   0  0
    6.3934   -5.0684    0.0000 C   0  0
    6.3934   -6.5971    0.0000 C   0  0
   10.5390   -6.6553    0.0000 N   0  0
   11.2463   -7.8578    0.0000 N   0  0
    9.1245   -5.0000    0.0000 C   0  0
    5.7216   -5.4512    0.0000 C   0  0
    5.7216   -6.2125    0.0000 C   0  0
    9.8318   -6.2371    0.0000 C   0  0
    9.8318   -5.4183    0.0000 C   0  0
    5.0000   -5.0456    0.0000 C   0  0
  2  1  1  0
  3  1  2  0
  4  3  1  0
  5  2  1  0
  6  1  1  0
  7  6  2  0
  8  7  1  0
  9  8  2  0
 10  4  1  0
 11  5  1  0
 12  9  1  0
 13  9  1  0
 14  3  1  0
 15 10  2  0
 16 11  2  0
 17  6  1  0
 18 17  1  0
 19 15  1  0
  4  5  2  0
 14 18  1  0
 15 16  1  0
M  END
> <COMPOUND_ID>
DNDI1417017

$$$$

  SciTegic04051205032D

 14 15  0  0  0  0            999 V2000
    7.9250   -7.1213    0.0000 N   0  0
    8.4059   -6.4542    0.0000 C   0  0
    7.1496   -6.0465    0.0000 C   0  0
    7.9250   -5.7848    0.0000 C   0  0
    7.1496   -6.8596    0.0000 C   0  0
    6.4354   -7.2839    0.0000 C   0  0
    6.4354   -5.6340    0.0000 C   0  0
    9.2426   -6.4707    0.0000 O   0  0
    8.1961   -7.9250    0.0000 C   0  0
    8.1961   -5.0000    0.0000 O   0  0
    5.7283   -6.0465    0.0000 C   0  0
    5.7283   -6.8596    0.0000 C   0  0
    5.0000   -5.6505    0.0000 Br  0  0
    7.6375   -8.5284    0.0000 O   0  0
  2  1  1  0
  3  5  2  0
  4  2  1  0
  5  1  1  0
  6  5  1  0
  7  3  1  0
  8  2  2  0
  9  1  1  0
 10  4  2  0
 11 12  1  0
 12  6  2  0
 13 11  1  0
 14  9  1  0
  4  3  1  0
  7 11  2  0
M  END
> <COMPOUND_ID>
DNDI1417018

$$$$

  SciTegic04051205032D

 19 20  0  0  0  0            999 V2000
    7.1731   -7.7245    0.0000 C   0  0
    7.8994   -7.3075    0.0000 C   0  0
    6.4552   -7.3075    0.0000 C   0  0
    7.1731   -6.0787    0.0000 C   0  0
    7.8994   -6.4846    0.0000 C   0  0
    6.4552   -6.4846    0.0000 C   0  0
    7.1731   -8.5474    0.0000 C   0  0
    7.8911   -8.9643    0.0000 C   0  0
    6.4607   -8.9643    0.0000 C   0  0
    7.1731   -5.2475    0.0000 O   0  0
    8.6256   -6.0787    0.0000 O   0  0
    8.5897   -8.5391    0.0000 O   0  0
    6.4745   -9.7623    0.0000 O   0  0
    5.7290   -7.7245    0.0000 C   0  0
    5.7290   -6.0787    0.0000 C   0  0
    5.7787   -8.5474    0.0000 C   0  0
    7.8773   -9.7706    0.0000 C   0  0
    5.0000   -7.3075    0.0000 C   0  0
    5.0000   -6.4846    0.0000 C   0  0
  2  1  2  0
  3  1  1  0
  4  5  1  0
  5  2  1  0
  6  3  2  0
  7  1  1  0
  8  7  1  0
  9  7  1  0
 10  4  2  0
 11  5  2  0
 12  8  2  0
 13  9  2  0
 14  3  1  0
 15  6  1  0
 16  9  1  0
 17  8  1  0
 18 14  2  0
 19 18  1  0
  4  6  1  0
 19 15  2  0
M  END
> <COMPOUND_ID>
DNDI1417019

$$$$

  SciTegic04051205032D

 19 20  0  0  0  0            999 V2000
    7.1409   -6.4869    0.0000 C   0  0
    6.4295   -7.7240    0.0000 C   0  0
    7.1409   -7.3124    0.0000 C   0  0
    5.7114   -7.3124    0.0000 C   0  0
    6.4295   -6.0708    0.0000 C   0  0
    5.7114   -6.4869    0.0000 C   0  0
    7.8568   -7.7240    0.0000 C   0  0
    6.4295   -8.5473    0.0000 O   0  0
    6.4295   -5.2475    0.0000 O   0  0
    7.8568   -8.5517    0.0000 C   0  0
    8.5727   -7.3235    0.0000 C   0  0
    7.8568   -6.0708    0.0000 C   0  0
    5.0000   -7.7240    0.0000 C   0  0
    5.0000   -6.0708    0.0000 C   0  0
    9.2931   -8.5630    0.0000 C   0  0
    8.5727   -8.9678    0.0000 C   0  0
    9.2931   -7.7240    0.0000 C   0  0
   10.0000   -8.9768    0.0000 O   0  0
   10.7114   -8.5808    0.0000 C   0  0
  2  3  1  0
  3  1  2  0
  4  6  2  0
  5  1  1  0
  6  5  1  0
  7  3  1  0
  8  2  2  0
  9  5  2  0
 10  7  1  0
 11  7  2  0
 12  1  1  0
 13  4  1  0
 14  6  1  0
 15 16  1  0
 16 10  2  0
 17 11  1  0
 18 15  1  0
 19 18  1  0
  4  2  1  0
 15 17  2  0
M  END
> <COMPOUND_ID>
DNDI1417020

$$$$

  SciTegic04051205032D

 18 20  0  0  0  0            999 V2000
    7.7062   -6.4236    0.0000 C   0  0
    7.2214   -5.7565    0.0000 N   0  0
    7.2214   -7.0976    0.0000 N   0  0
    8.5315   -6.4236    0.0000 C   0  0
    6.4340   -6.8431    0.0000 C   0  0
    6.4340   -6.0110    0.0000 C   0  0
    8.9373   -5.7118    0.0000 C   0  0
    7.4724   -7.8851    0.0000 C   0  0
    8.5109   -5.0000    0.0000 Cl  0  0
    8.9373   -7.1355    0.0000 C   0  0
    5.7118   -7.2558    0.0000 C   0  0
    5.7118   -5.5983    0.0000 C   0  0
    9.7488   -5.7118    0.0000 C   0  0
    6.9257   -8.4972    0.0000 C   0  0
    9.7592   -7.1355    0.0000 C   0  0
    5.0000   -6.8431    0.0000 C   0  0
    5.0000   -6.0213    0.0000 C   0  0
   10.1684   -6.4236    0.0000 C   0  0
  2  1  2  0
  3  1  1  0
  4  1  1  0
  5  3  1  0
  6  2  1  0
  7  4  1  0
  8  3  1  0
  9  7  1  0
 10  4  2  0
 11  5  2  0
 12  6  2  0
 13  7  2  0
 14  8  1  0
 15 10  1  0
 16 11  1  0
 17 12  1  0
 18 15  2  0
  6  5  1  0
 13 18  1  0
 17 16  2  0
M  END
> <COMPOUND_ID>
DNDI1417021

$$$$

  SciTegic04051205032D

 15 16  0  0  0  0            999 V2000
    7.8570   -6.2280    0.0000 C   0  0
    8.5715   -6.6454    0.0000 C   0  0
    7.1454   -6.6454    0.0000 N   0  0
    7.1454   -7.4724    0.0000 N   0  0
    8.5715   -7.4724    0.0000 C   0  0
    7.8570   -7.8772    0.0000 C   0  0
    7.8570   -5.4001    0.0000 S   0  0
    6.4328   -6.2348    0.0000 C   0  0
    9.2851   -6.2348    0.0000 Cl  0  0
    9.2851   -7.8859    0.0000 Cl  0  0
    6.4328   -5.4087    0.0000 C   0  0
    5.7203   -6.6512    0.0000 C   0  0
    5.0048   -6.2396    0.0000 C   0  0
    5.7203   -5.0000    0.0000 C   0  0
    5.0000   -5.4126    0.0000 C   0  0
  2  1  1  0
  3  1  1  0
  4  3  1  0
  5  2  2  0
  6  4  2  0
  7  1  2  0
  8  3  1  0
  9  2  1  0
 10  5  1  0
 11  8  2  0
 12  8  1  0
 13 12  2  0
 14 11  1  0
 15 13  1  0
  5  6  1  0
 14 15  2  0
M  END
> <COMPOUND_ID>
DNDI1417022

$$$$

  SciTegic04051205032D

 19 20  0  0  0  0            999 V2000
    6.4157   -6.2164    0.0000 C   0  0
    7.1235   -6.6355    0.0000 C   0  0
    8.6182   -6.5840    0.0000 N   0  0
    9.3260   -6.1854    0.0000 C   0  0
    7.9104   -6.1854    0.0000 O   0  0
    5.7078   -6.6355    0.0000 C   0  0
    7.1097   -7.5255    0.0000 O   0  0
   10.0339   -6.5840    0.0000 C   0  0
    9.3260   -5.3676    0.0000 N   0  0
    5.7078   -7.4534    0.0000 F   0  0
    6.4157   -5.4020    0.0000 C   0  0
    5.0000   -6.2026    0.0000 C   0  0
   10.0339   -7.4018    0.0000 C   0  0
   10.7417   -6.1854    0.0000 C   0  0
    5.7216   -5.0000    0.0000 C   0  0
    5.0000   -5.3882    0.0000 C   0  0
   10.7417   -7.8210    0.0000 C   0  0
   11.4495   -6.5840    0.0000 C   0  0
   11.4495   -7.4018    0.0000 C   0  0
  2  1  1  0
  3  5  1  0
  4  3  2  0
  5  2  1  0
  6  1  1  0
  7  2  2  0
  8  4  1  0
  9  4  1  0
 10  6  1  0
 11  1  2  0
 12  6  2  0
 13  8  1  0
 14  8  2  0
 15 11  1  0
 16 15  2  0
 17 13  2  0
 18 14  1  0
 19 18  2  0
 16 12  1  0
 17 19  1  0
M  END
> <COMPOUND_ID>
DNDI1417023

$$$$

  SciTegic04051205032D

 19 20  0  0  0  0            999 V2000
    6.2953   -6.3743    0.0000 C   0  0
    7.0098   -6.7900    0.0000 C   0  0
    6.2231   -5.5531    0.0000 C   0  0
    8.4391   -6.7900    0.0000 N   0  0
    9.1537   -6.3743    0.0000 C   0  0
    7.7245   -6.3743    0.0000 O   0  0
    5.5497   -6.7075    0.0000 C   0  0
    9.8683   -6.7900    0.0000 C   0  0
    5.4020   -5.3814    0.0000 O   0  0
    5.0000   -6.0960    0.0000 C   0  0
    7.0098   -7.6145    0.0000 O   0  0
   10.5830   -6.3743    0.0000 C   0  0
    9.1537   -5.5531    0.0000 N   0  0
   11.2975   -6.7900    0.0000 C   0  0
    6.8278   -5.0000    0.0000 C   0  0
    9.8683   -7.6145    0.0000 C   0  0
   10.5830   -8.0268    0.0000 C   0  0
   11.2975   -7.6145    0.0000 C   0  0
   12.0122   -6.3743    0.0000 C   0  0
  2  1  1  0
  3  1  2  0
  4  6  1  0
  5  4  2  0
  6  2  1  0
  7  1  1  0
  8  5  1  0
  9  3  1  0
 10  7  2  0
 11  2  2  0
 12  8  1  0
 13  5  1  0
 14 12  2  0
 15  3  1  0
 16  8  2  0
 17 16  1  0
 18 17  2  0
 19 14  1  0
  9 10  1  0
 14 18  1  0
M  END
> <COMPOUND_ID>
DNDI1417024

$$$$

  SciTegic04051205032D

 18 20  0  0  0  0            999 V2000
    6.9312   -8.4623    0.0000 C   0  0
    6.9312   -9.2899    0.0000 N   0  0
    6.1541   -8.2048    0.0000 C   0  0
    7.6438   -9.6946    0.0000 C   0  0
    6.1403   -9.5429    0.0000 N   0  0
    7.6438   -8.0393    0.0000 N   0  0
    8.3611   -9.2899    0.0000 C   0  0
    5.6621   -8.8807    0.0000 C   0  0
    8.3611   -8.4623    0.0000 C   0  0
    5.9656   -7.4048    0.0000 C   0  0
    7.6438  -10.5176    0.0000 N   0  0
    5.1793   -7.1519    0.0000 C   0  0
    6.5817   -6.8392    0.0000 C   0  0
    5.6069   -5.8047    0.0000 C   0  0
    5.0000   -6.3426    0.0000 C   0  0
    6.3932   -6.0483    0.0000 C   0  0
    5.4368   -5.0000    0.0000 Cl  0  0
    9.0784   -8.0393    0.0000 C   0  0
  2  1  1  0
  3  1  2  0
  4  2  1  0
  5  2  1  0
  6  1  1  0
  7  9  1  0
  8  3  1  0
  9  6  2  0
 10  3  1  0
 11  4  1  0
 12 10  2  0
 13 10  1  0
 14 16  1  0
 15 12  1  0
 16 13  2  0
 17 14  1  0
 18  9  1  0
  8  5  2  0
  7  4  2  0
 14 15  2  0
M  END
> <COMPOUND_ID>
DNDI1417025

$$$$

  SciTegic04051205032D

 19 20  0  0  0  0            999 V2000
   10.2019   -6.4543    0.0000 C   0  0
    9.4937   -6.8565    0.0000 N   0  0
    7.9981   -6.9046    0.0000 C   0  0
   10.9102   -6.8565    0.0000 C   0  0
    8.7854   -6.4543    0.0000 O   0  0
    7.2898   -6.4887    0.0000 C   0  0
    7.9843   -7.7951    0.0000 O   0  0
   12.3199   -6.8565    0.0000 N   0  0
    7.2898   -5.6704    0.0000 C   0  0
    6.5815   -6.9046    0.0000 C   0  0
   10.2019   -5.6394    0.0000 N   0  0
    5.8733   -5.6566    0.0000 C   0  0
   11.6185   -6.4543    0.0000 C   0  0
    6.5953   -5.2716    0.0000 C   0  0
    5.8733   -6.4749    0.0000 C   0  0
    5.1650   -5.2475    0.0000 F   0  0
   10.9102   -7.6714    0.0000 C   0  0
   12.3267   -7.6714    0.0000 C   0  0
   11.6185   -8.0908    0.0000 C   0  0
  2  1  2  0
  3  5  1  0
  4  1  1  0
  5  2  1  0
  6  3  1  0
  7  3  2  0
  8 13  1  0
  9  6  2  0
 10  6  1  0
 11  1  1  0
 12 15  1  0
 13  4  2  0
 14  9  1  0
 15 10  2  0
 16 12  1  0
 17  4  1  0
 18 19  1  0
 19 17  2  0
 18  8  2  0
 14 12  2  0
M  END
> <COMPOUND_ID>
DNDI1417026

$$$$

  SciTegic04051205032D

 19 20  0  0  0  0            999 V2000
   10.0047   -6.3379    0.0000 N   0  0
   10.7782   -5.2475    0.0000 N   0  0
   11.2504   -5.9185    0.0000 N   0  0
   10.0047   -5.5022    0.0000 C   0  0
   10.7782   -6.5895    0.0000 C   0  0
    9.2746   -6.7355    0.0000 N   0  0
    7.8425   -9.2363    0.0000 C   0  0
    8.5508   -7.9999    0.0000 C   0  0
    7.1373   -8.8355    0.0000 C   0  0
    8.5508   -8.8355    0.0000 C   0  0
    9.2746   -7.5712    0.0000 C   0  0
    6.4135   -9.2518    0.0000 N   0  0
    7.8425   -7.5867    0.0000 C   0  0
    7.1373   -7.9999    0.0000 C   0  0
    9.2746   -9.2518    0.0000 O   0  0
    6.4135  -10.0875    0.0000 C   0  0
    5.7083   -8.8511    0.0000 C   0  0
    5.0000   -9.2518    0.0000 C   0  0
    7.1218  -10.5069    0.0000 C   0  0
  2  4  2  0
  3  5  2  0
  4  1  1  0
  5  1  1  0
  6  1  1  0
  7 10  1  0
  8 11  1  0
  9 14  1  0
 10  8  2  0
 11  6  2  0
 12  9  1  0
 13  8  1  0
 14 13  2  0
 15 10  1  0
 16 12  1  0
 17 12  1  0
 18 17  1  0
 19 16  1  0
  3  2  1  0
  7  9  2  0
M  END
> <COMPOUND_ID>
DNDI1417027

$$$$

  SciTegic04051205032D

 18 19  0  0  0  0            999 V2000
    8.9560   -7.7909    0.0000 S   0  0
    7.5919   -7.3662    0.0000 C   0  0
    8.1357   -7.9707    0.0000 C   0  0
    8.7739   -6.9999    0.0000 O   0  0
    9.1380   -8.6089    0.0000 O   0  0
    7.8346   -6.5775    0.0000 C   0  0
    6.7425   -7.5775    0.0000 C   0  0
    5.1650   -7.9707    0.0000 N   0  0
    9.7447   -7.6089    0.0000 C   0  0
    5.4077   -7.1819    0.0000 C   0  0
    5.7717   -8.5797    0.0000 C   0  0
    6.5605   -8.3684    0.0000 C   0  0
    6.1650   -6.9999    0.0000 C   0  0
    8.6526   -6.3954    0.0000 C   0  0
    7.2886   -5.9707    0.0000 C   0  0
    7.5313   -5.1820    0.0000 C   0  0
    8.8953   -5.6359    0.0000 C   0  0
    8.3514   -5.0000    0.0000 C   0  0
  2  3  2  0
  3  1  1  0
  4  1  2  0
  5  1  2  0
  6  2  1  0
  7  2  1  0
  8 11  1  0
  9  1  1  0
 10 13  1  0
 11 12  2  0
 12  7  1  0
 13  7  2  0
 14  6  1  0
 15  6  2  0
 16 15  1  0
 17 14  2  0
 18 17  1  0
  8 10  2  0
 18 16  2  0
M  END
> <COMPOUND_ID>
DNDI1417028

$$$$

  SciTegic04051205032D

 19 20  0  0  0  0            999 V2000
    6.4232   -6.2469    0.0000 C   0  0
    6.4232   -7.0701    0.0000 C   0  0
    7.1325   -5.8320    0.0000 C   0  0
    7.8508   -6.2469    0.0000 C   0  0
    7.1415   -7.4850    0.0000 C   0  0
    7.8575   -7.0701    0.0000 C   0  0
    5.7116   -5.8253    0.0000 C   0  0
    5.7116   -7.4850    0.0000 C   0  0
    5.0000   -6.2469    0.0000 C   0  0
    5.0000   -7.0701    0.0000 C   0  0
    8.5669   -5.8253    0.0000 C   0  0
    8.5669   -5.0000    0.0000 N   0  0
    8.5669   -7.4850    0.0000 C   0  0
    5.2989   -8.1943    0.0000 C   0  0
    5.4952   -5.0290    0.0000 C   0  0
    6.1243   -5.1093    0.0000 C   0  0
    6.1243   -8.1943    0.0000 C   0  0
    9.2852   -6.2380    0.0000 C   0  0
    8.5669   -8.3059    0.0000 C   0  0
  2  1  2  0
  3  1  1  0
  4  3  2  0
  5  2  1  0
  6  4  1  0
  7  1  1  0
  8  2  1  0
  9  7  1  0
 10  9  1  0
 11  4  1  0
 12 11  1  0
 13  6  1  0
 14  8  1  0
 15  7  1  0
 16  7  1  0
 17  8  1  0
 18 11  1  0
 19 13  1  0
 10  8  1  0
  6  5  2  0
M  END
> <COMPOUND_ID>
DNDI1417029

$$$$

  SciTegic04051205032D

 16 16  0  0  0  0            999 V2000
    7.2312   -5.4238    0.0000 C   0  0
    7.9417   -5.0166    0.0000 C   0  0
    7.2312   -6.2506    0.0000 C   0  0
    5.7978   -8.7146    0.0000 C   0  0
    6.5207   -6.6579    0.0000 C   0  0
    5.7978   -7.8919    0.0000 C   0  0
    6.5207   -7.4805    0.0000 C   0  0
    7.9417   -6.6579    0.0000 C   0  0
    8.6647   -5.4238    0.0000 C   0  0
    6.5207   -5.0166    0.0000 Cl  0  0
    5.0873   -7.4763    0.0000 N   0  0
    8.6647   -6.2506    0.0000 C   0  0
    9.3752   -5.0000    0.0000 Cl  0  0
    5.0748   -9.1259    0.0000 C   0  0
    6.5083   -9.1300    0.0000 C   0  0
    5.0000   -8.4902    0.0000 C   0  0
  2  1  1  0
  3  1  2  0
  4  6  1  0
  5  3  1  0
  6  7  1  0
  7  5  1  0
  8  3  1  0
  9  2  2  0
 10  1  1  0
 11  6  1  0
 12  9  1  0
 13  9  1  0
 14  4  1  0
 15  4  1  0
 16  4  1  0
 12  8  2  0
M  END
> <COMPOUND_ID>
DNDI1417030

$$$$

  SciTegic04051205032D

 19 20  0  0  0  0            999 V2000
    7.0005   -6.5022    0.0000 C   0  0
    8.4889   -6.4746    0.0000 N   0  0
    6.2890   -6.0931    0.0000 C   0  0
    9.1866   -6.0656    0.0000 C   0  0
    7.7807   -6.0656    0.0000 O   0  0
    5.5328   -6.4197    0.0000 O   0  0
    9.8947   -6.4746    0.0000 C   0  0
    7.0005   -7.4096    0.0000 O   0  0
    6.2133   -5.2854    0.0000 C   0  0
    5.0000   -5.8078    0.0000 C   0  0
    5.4193   -5.1101    0.0000 C   0  0
   10.6028   -6.0656    0.0000 C   0  0
    9.8947   -7.2789    0.0000 C   0  0
    9.1866   -5.2475    0.0000 N   0  0
   11.3143   -7.2789    0.0000 C   0  0
   11.3143   -6.4746    0.0000 C   0  0
   10.6028   -7.6983    0.0000 C   0  0
   12.0224   -7.6983    0.0000 O   0  0
   12.7304   -7.2789    0.0000 C   0  0
  2  5  1  0
  3  1  1  0
  4  2  2  0
  5  1  1  0
  6  3  1  0
  7  4  1  0
  8  1  2  0
  9  3  2  0
 10  6  1  0
 11  9  1  0
 12  7  2  0
 13  7  1  0
 14  4  1  0
 15 17  1  0
 16 12  1  0
 17 13  2  0
 18 15  1  0
 19 18  1  0
 10 11  2  0
 16 15  2  0
M  END
> <COMPOUND_ID>
DNDI1417031

$$$$

  SciTegic04051205032D

 18 19  0  0  0  0            999 V2000
    6.9966   -6.5121    0.0000 C   0  0
    6.2887   -6.0997    0.0000 C   0  0
    8.4708   -6.4812    0.0000 N   0  0
    9.1788   -6.0619    0.0000 C   0  0
    7.7767   -6.0619    0.0000 O   0  0
    5.5292   -6.4262    0.0000 S   0  0
    9.8832   -6.4675    0.0000 C   0  0
    6.9966   -7.4056    0.0000 O   0  0
    6.2097   -5.2819    0.0000 C   0  0
    5.0000   -5.8042    0.0000 C   0  0
    5.4158   -5.0963    0.0000 C   0  0
   10.5911   -6.0619    0.0000 C   0  0
    9.8832   -7.2750    0.0000 C   0  0
    9.1788   -5.2475    0.0000 N   0  0
   11.2990   -6.4675    0.0000 C   0  0
   10.5911   -7.6840    0.0000 C   0  0
   11.2990   -7.2750    0.0000 C   0  0
   12.0069   -7.6840    0.0000 C   0  0
  2  1  1  0
  3  5  1  0
  4  3  2  0
  5  1  1  0
  6  2  1  0
  7  4  1  0
  8  1  2  0
  9  2  2  0
 10  6  1  0
 11  9  1  0
 12  7  2  0
 13  7  1  0
 14  4  1  0
 15 12  1  0
 16 13  2  0
 17 16  1  0
 18 17  1  0
 11 10  2  0
 17 15  2  0
M  END
> <COMPOUND_ID>
DNDI1417032

$$$$

  SciTegic04051205032D

 18 19  0  0  0  0            999 V2000
    7.8785   -7.0977    0.0000 N   0  0
    8.6941   -7.0977    0.0000 C   0  0
    7.6227   -7.8999    0.0000 C   0  0
    8.2996   -8.3770    0.0000 S   0  0
    8.9660   -7.8813    0.0000 C   0  0
    5.8209   -6.2394    0.0000 C   0  0
    6.8684   -8.1477    0.0000 C   0  0
    9.1579   -6.4313    0.0000 C   0  0
    5.0000   -6.3673    0.0000 O   0  0
    6.4366   -6.7911    0.0000 N   0  0
    6.2394   -7.5800    0.0000 C   0  0
    6.0501   -5.4558    0.0000 C   0  0
    9.9895   -6.4846    0.0000 C   0  0
    8.8114   -5.6850    0.0000 C   0  0
    6.8524   -5.2692    0.0000 C   0  0
    9.2698   -5.0000    0.0000 C   0  0
   10.4532   -5.8023    0.0000 C   0  0
   10.0960   -5.0507    0.0000 C   0  0
  2  1  1  0
  3  1  2  0
  4  3  1  0
  5  2  2  0
  6 10  1  0
  7  3  1  0
  8  2  1  0
  9  6  2  0
 10 11  1  0
 11  7  1  0
 12  6  1  0
 13  8  2  0
 14  8  1  0
 15 12  1  0
 16 14  2  0
 17 13  1  0
 18 16  1  0
  4  5  1  0
 18 17  2  0
M  END
> <COMPOUND_ID>
DNDI1417033

$$$$

  SciTegic04051205032D

 19 20  0  0  0  0            999 V2000
    7.8539   -8.9596    0.0000 C   0  0
    7.9497   -9.7763    0.0000 C   0  0
    8.6163   -8.6264    0.0000 C   0  0
    8.7538   -9.9595    0.0000 N   0  0
    7.1373   -8.5597    0.0000 N   0  0
    9.1663   -9.2388    0.0000 O   0  0
    6.4166   -6.4891    0.0000 C   0  0
    7.1373   -6.0641    0.0000 C   0  0
    7.1373   -7.7265    0.0000 N   0  0
    8.7788   -7.8139    0.0000 N   0  0
    6.4166   -7.3140    0.0000 C   0  0
    7.1290   -5.2475    0.0000 O   0  0
    7.3373  -10.3387    0.0000 N   0  0
    7.8497   -6.4766    0.0000 O   0  0
    5.7041   -6.0766    0.0000 C   0  0
    5.7041   -7.7265    0.0000 C   0  0
    8.5539   -6.0599    0.0000 C   0  0
    5.0000   -6.4891    0.0000 C   0  0
    5.0000   -7.3140    0.0000 C   0  0
  2  1  1  0
  3  1  1  0
  4  2  2  0
  5  1  2  0
  6  3  1  0
  7 11  1  0
  8  7  1  0
  9  5  1  0
 10  3  2  0
 11  9  1  0
 12  8  2  0
 13  2  1  0
 14  8  1  0
 15  7  2  0
 16 11  2  0
 17 14  1  0
 18 19  2  0
 19 16  1  0
  6  4  1  0
 18 15  1  0
M  END
> <COMPOUND_ID>
DNDI1417034

$$$$

  SciTegic04051205032D

 18 19  0  0  0  0            999 V2000
    8.2120   -6.3500    0.0000 C   0  0
    7.4797   -5.9756    0.0000 C   0  0
    8.2536   -7.1738    0.0000 S   0  3
    7.5629   -7.6232    0.0000 C   0  0
    8.9900   -7.5524    0.0000 O   0  5
    6.6518   -5.9672    0.0000 C   0  0
    6.2441   -5.2475    0.0000 N   0  0
    8.9027   -5.9090    0.0000 F   0  0
    6.8265   -7.2445    0.0000 C   0  0
    7.6004   -8.4428    0.0000 C   0  0
    6.1358   -7.6856    0.0000 C   0  0
    6.9139   -8.8879    0.0000 C   0  0
    6.1775   -8.5094    0.0000 C   0  0
    5.4203   -5.2433    0.0000 C   0  0
    6.2399   -6.6828    0.0000 C   0  0
    5.4827   -8.9587    0.0000 C   0  0
    5.0000   -5.9589    0.0000 C   0  0
    5.4161   -6.6787    0.0000 C   0  0
  2  1  2  0
  3  1  1  0
  3  4  1  1
  5  3  1  0
  6  2  1  0
  7  6  2  0
  8  1  1  0
  9  4  2  0
 10  4  1  0
 11  9  1  0
 12 10  2  0
 13 12  1  0
 14  7  1  0
 15  6  1  0
 16 13  1  0
 17 14  2  0
 18 15  2  0
 17 18  1  0
 13 11  2  0
M  CHG  2   3   1   5  -1
M  END
> <COMPOUND_ID>
DNDI1417035

$$$$

  SciTegic04051205032D

 19 21  0  0  0  0            999 V2000
    7.1493   -6.2696    0.0000 C   0  0
    7.8546   -5.8298    0.0000 C   0  0
    8.5848   -6.2198    0.0000 C   0  0
    7.9085   -7.4812    0.0000 O   0  0
    7.1742   -7.0911    0.0000 C   0  0
   10.0121   -6.1742    0.0000 N   0  0
    9.2818   -5.7842    0.0000 C   0  0
    8.6056   -7.0455    0.0000 C   0  0
    6.4273   -5.8713    0.0000 C   0  0
    7.8297   -5.0000    0.0000 O   0  0
    6.4729   -7.5226    0.0000 C   0  0
   11.4600   -6.9584    0.0000 O   0  0
    5.7261   -6.3070    0.0000 C   0  0
    5.7552   -7.1367    0.0000 C   0  0
   10.7132   -5.7344    0.0000 C   0  0
   10.0370   -6.9998    0.0000 C   0  0
   11.4351   -6.1327    0.0000 C   0  0
   10.7547   -7.3857    0.0000 C   0  0
    5.0000   -5.9211    0.0000 C   0  0
  2  1  1  0
  3  2  1  0
  4  5  1  0
  5  1  2  0
  6  7  1  0
  7  3  1  0
  8  3  1  0
  9  1  1  0
 10  2  2  0
 11  5  1  0
 12 17  1  0
 13  9  2  0
 14 13  1  0
 15  6  1  0
 16  6  1  0
 17 15  1  0
 18 16  1  0
 19 13  1  0
 14 11  2  0
  8  4  1  0
 12 18  1  0
M  END
> <COMPOUND_ID>
DNDI1417036

$$$$

  SciTegic04051205032D

 19 20  0  0  0  0            999 V2000
   10.0349   -6.0621    0.0000 C   0  0
    9.3337   -6.4642    0.0000 N   0  0
   10.7394   -6.4710    0.0000 C   0  0
    7.8628   -6.4883    0.0000 C   0  0
    8.6326   -6.0518    0.0000 O   0  0
   12.1451   -6.4710    0.0000 N   0  0
    7.8525   -7.3921    0.0000 O   0  0
   10.0486   -5.2475    0.0000 N   0  0
    7.1583   -6.0827    0.0000 C   0  0
   11.4405   -6.0724    0.0000 C   0  0
   10.7394   -7.2890    0.0000 C   0  0
    6.4365   -6.4883    0.0000 C   0  0
   12.1451   -7.2890    0.0000 C   0  0
    6.4228   -7.3268    0.0000 C   0  0
    5.7217   -6.0827    0.0000 C   0  0
   11.4405   -7.6876    0.0000 C   0  0
    5.0137   -6.4848    0.0000 C   0  0
    5.7183   -7.7392    0.0000 C   0  0
    5.0000   -7.3062    0.0000 C   0  0
  2  1  2  0
  3  1  1  0
  4  5  1  0
  5  2  1  0
  6 10  1  0
  7  4  2  0
  8  1  1  0
  9  4  1  0
 10  3  2  0
 11  3  1  0
 12  9  1  0
 13 16  1  0
 14 12  1  0
 15 12  1  0
 16 11  2  0
 17 15  1  0
 18 14  1  0
 19 17  1  0
  6 13  2  0
 19 18  1  0
M  END
> <COMPOUND_ID>
DNDI1417037

$$$$

  SciTegic04051205032D

 18 20  0  0  0  0            999 V2000
    7.1619   -8.8447    0.0000 C   0  0
    6.4403   -8.4323    0.0000 C   0  0
    7.1619   -7.2037    0.0000 C   0  0
    7.8807   -8.4323    0.0000 C   0  0
    6.4403   -7.6132    0.0000 C   0  0
    7.8807   -7.6132    0.0000 C   0  0
    6.4543   -5.9723    0.0000 N   0  0
    7.1619   -6.3818    0.0000 C   0  0
    5.7188   -8.8447    0.0000 N   0  0
    7.1619   -9.6526    0.0000 O   0  0
    8.5940   -8.8335    0.0000 Cl  0  0
    5.7188   -7.2037    0.0000 C   0  0
    5.7188   -6.3206    0.0000 C   0  0
    6.3540   -5.1337    0.0000 C   0  0
    5.0000   -8.4323    0.0000 C   0  0
    5.0000   -7.6132    0.0000 C   0  0
    5.5209   -5.0000    0.0000 C   0  0
    5.1448   -5.7104    0.0000 C   0  0
  2  1  2  0
  3  6  1  0
  4  1  1  0
  5  2  1  0
  6  4  2  0
  7  8  1  0
  8  3  1  0
  9  2  1  0
 10  1  1  0
 11  4  1  0
 12  5  1  0
 13  7  1  0
 14  7  1  0
 15  9  2  0
 16 15  1  0
 17 14  1  0
 18 13  1  0
  3  5  2  0
 16 12  2  0
 18 17  1  0
M  END
> <COMPOUND_ID>
DNDI1417038

$$$$

  SciTegic04051205032D

 20 23  0  0  0  0            999 V2000
    7.8460   -7.8991    0.0000 C   0  0
    8.5746   -7.4817    0.0000 C   0  0
    9.2804   -7.8890    0.0000 N   0  0
    8.5645   -9.1337    0.0000 N   0  0
    7.8460   -8.7264    0.0000 C   0  0
    9.2804   -8.7264    0.0000 C   0  0
    7.1377   -7.4817    0.0000 C   0  0
    7.1478   -6.6317    0.0000 C   0  0
    8.5872   -6.6443    0.0000 O   0  0
    7.8586   -6.2193    0.0000 C   0  0
    6.4318   -6.2193    0.0000 C   0  0
    7.1478   -9.1337    0.0000 O   0  0
    9.9837   -9.1438    0.0000 O   0  0
    7.8586   -5.4073    0.0000 C   0  0
    6.4318   -5.4073    0.0000 C   0  0
    7.1478   -5.0000    0.0000 C   0  0
    5.7134   -6.6317    0.0000 C   0  0
    5.7134   -5.0000    0.0000 C   0  0
    5.0000   -6.2193    0.0000 C   0  0
    5.0000   -5.4073    0.0000 C   0  0
  2  1  1  0
  3  2  2  0
  4  5  1  0
  5  1  1  0
  6  4  1  0
  7  1  2  0
  8  7  1  0
  9  2  1  0
 10  8  1  0
 11  8  2  0
 12  5  2  0
 13  6  2  0
 14 10  2  0
 15 11  1  0
 16 15  2  0
 17 11  1  0
 18 15  1  0
 19 17  2  0
 20 19  1  0
 10  9  1  0
  6  3  1  0
 16 14  1  0
 20 18  2  0
M  END
> <COMPOUND_ID>
DNDI1417039

$$$$

  SciTegic04051205032D

 20 22  0  0  0  0            999 V2000
    7.8631   -6.4803    0.0000 C   0  0
    7.1529   -6.0604    0.0000 C   0  0
    6.4293   -6.4803    0.0000 C   0  0  2  0  0  0
    7.8631   -7.2865    0.0000 C   0  0
    6.4293   -7.2865    0.0000 C   0  0  1  0  0  0
    7.1529   -7.7064    0.0000 C   0  0
    8.5800   -6.0604    0.0000 C   0  0
    5.7124   -7.7064    0.0000 C   0  0
    9.3372   -6.4021    0.0000 O   0  0
    8.6671   -5.2475    0.0000 O   0  0
    8.5800   -7.7064    0.0000 O   0  0
    5.7124   -6.0604    0.0000 C   0  0
    6.4293   -5.6517    0.0000 C   0  0
    5.0000   -7.2865    0.0000 C   0  0
    5.0000   -6.4803    0.0000 C   0  0
    5.2903   -8.4189    0.0000 C   0  0
    6.1211   -8.4189    0.0000 C   0  0
    9.8866   -5.7857    0.0000 C   0  0
    9.4824   -5.0755    0.0000 C   0  0
    6.4293   -8.1151    0.0000 H   0  0
  2  1  2  0
  3  2  1  0
  4  1  1  0
  5  6  1  0
  6  4  1  0
  7  1  1  0
  8  5  1  0
  9  7  1  0
 10  7  1  0
 11  4  2  0
 12  3  1  0
  3 13  1  1
 14  8  1  0
 15 12  1  0
 16  8  1  0
 17  8  1  0
 18  9  1  0
 19 10  1  0
  5  3  1  0
 19 18  1  0
 14 15  1  0
  5 20  1  6
M  END
> <COMPOUND_ID>
DNDI1417040

$$$$

  SciTegic04051205032D

 20 23  0  0  0  0            999 V2000
    7.8596   -6.2774    0.0000 C   0  0
    8.5739   -5.8702    0.0000 C   0  0
    7.1429   -5.8702    0.0000 C   0  0
    7.8596   -7.1220    0.0000 C   0  0
    9.2859   -6.2984    0.0000 C   0  0
    7.1429   -7.5269    0.0000 C   0  0
    8.7531   -5.0768    0.0000 N   0  0
    6.4356   -6.2984    0.0000 C   0  0
    6.4356   -7.1220    0.0000 C   0  0
    9.9002   -5.7399    0.0000 C   0  0
    9.5651   -5.0000    0.0000 O   0  0
    9.2859   -7.1220    0.0000 C   0  0
    8.5739   -7.5269    0.0000 C   0  0
    7.1429   -5.0489    0.0000 O   0  0
    7.1429   -8.3715    0.0000 O   0  0
   10.7378   -5.9214    0.0000 O   0  0
    5.7190   -5.8935    0.0000 C   0  0
    5.7190   -7.5269    0.0000 C   0  0
    5.0000   -6.2984    0.0000 C   0  0
    5.0000   -7.0941    0.0000 C   0  0
  2  1  1  0
  3  1  1  0
  4  1  2  0
  5  2  2  0
  6  4  1  0
  7  2  1  0
  8  3  1  0
  9  6  1  0
 10  5  1  0
 11  7  1  0
 12 13  2  0
 13  4  1  0
 14  3  2  0
 15  6  2  0
 16 10  2  0
 17  8  1  0
 18  9  1  0
 19 17  2  0
 20 18  2  0
 12  5  1  0
  9  8  2  0
 10 11  1  0
 20 19  1  0
M  END
> <COMPOUND_ID>
DNDI1417041

$$$$

  SciTegic04051205032D

 20 22  0  0  0  0            999 V2000
    7.7282   -9.2380    0.0000 N   0  0
    7.7282  -10.0220    0.0000 C   0  0
    7.0542  -10.4173    0.0000 O   0  0
    8.3017   -8.6677    0.0000 C   0  0
    6.3641   -9.2380    0.0000 C   0  0
    8.1137   -7.8869    0.0000 C   0  0
    6.3641  -10.0220    0.0000 C   0  0
    8.6969   -7.3328    0.0000 C   0  0
    8.4345  -10.4400    0.0000 O   0  0
    9.4940   -7.5726    0.0000 O   0  0
    8.5058   -6.5584    0.0000 C   0  0
    5.6804   -8.8394    0.0000 C   0  0
    5.6804  -10.4173    0.0000 C   0  0
    7.7346   -6.3251    0.0000 C   0  0
    9.0922   -5.9784    0.0000 C   0  0
    5.0000   -9.2380    0.0000 C   0  0
    5.0000  -10.0220    0.0000 C   0  0
    7.5402   -5.5443    0.0000 C   0  0
    8.8881   -5.1976    0.0000 C   0  0
    8.1073   -5.0000    0.0000 C   0  0
  2  1  1  0
  3  2  1  0
  4  1  1  0
  5  1  1  0
  6  4  2  0
  7  5  2  0
  8  6  1  0
  9  2  2  0
 10  8  2  0
 11  8  1  0
 12  5  1  0
 13  7  1  0
 14 11  1  0
 15 11  2  0
 16 12  2  0
 17 16  1  0
 18 14  2  0
 19 15  1  0
 20 19  2  0
  3  7  1  0
 17 13  2  0
 20 18  1  0
M  END
> <COMPOUND_ID>
DNDI1417042

$$$$

  SciTegic04051205032D

 20 22  0  0  0  0            999 V2000
    6.5732   -7.4636    0.0000 C   0  0
    7.3009   -7.9047    0.0000 N   0  0
    5.8707   -7.8763    0.0000 N   0  0
    8.0255   -7.4951    0.0000 N   0  0
    5.1650   -7.4636    0.0000 N   0  0
    8.7249   -7.9361    0.0000 C   0  0
    6.5953   -6.6477    0.0000 C   0  0
   10.1426   -8.7899    0.0000 C   0  0
    9.4557   -7.5550    0.0000 C   0  0
    8.7091   -8.7584    0.0000 C   0  0
   10.1583   -7.9614    0.0000 C   0  0
    9.3959   -9.2025    0.0000 C   0  0
   10.8671   -9.2309    0.0000 N   0  0
    5.8864   -6.2381    0.0000 C   0  0
   11.5665   -8.8151    0.0000 O   0  0
    5.1650   -6.6477    0.0000 C   0  0
    7.3009   -6.2381    0.0000 C   0  0
    5.8864   -5.4096    0.0000 C   0  0
    7.3009   -5.4096    0.0000 C   0  0
    6.5953   -5.0000    0.0000 C   0  0
  2  1  1  0
  3  1  2  0
  4  2  1  0
  5  3  1  0
  6  4  2  0
  7  1  1  0
  8 11  1  0
  9  6  1  0
 10  6  1  0
 11  9  2  0
 12 10  2  0
 13  8  2  0
 14  7  1  0
 15 13  1  0
 16  5  2  0
 17  7  2  0
 18 14  2  0
 19 17  1  0
 20 19  2  0
 16 14  1  0
 20 18  1  0
  8 12  1  0
M  END
> <COMPOUND_ID>
DNDI1417043

$$$$

  SciTegic04051205032D

 20 22  0  0  0  0            999 V2000
    6.4307   -9.9598    0.0000 C   0  0
    6.4307   -9.1219    0.0000 C   0  0
    8.5787   -6.2248    0.0000 N   0  0
    7.8615   -6.6509    0.0000 C   0  0
    5.7100  -10.3681    0.0000 N   0  0
    7.1479   -8.7172    0.0000 C   0  0
    7.1479  -10.3681    0.0000 C   0  0
    7.8615   -7.4887    0.0000 N   0  0
    7.1479   -7.8971    0.0000 C   0  0
    7.8615   -9.1432    0.0000 C   0  0
    7.8615   -9.9420    0.0000 C   0  0
    8.5787   -5.4118    0.0000 C   0  0
    7.1479  -11.1882    0.0000 O   0  0
    5.7100   -8.7172    0.0000 C   0  0
    7.1479   -6.2462    0.0000 C   0  0
    7.1479   -5.4118    0.0000 C   0  0
    5.0000   -9.9420    0.0000 C   0  0
    7.8615   -5.0000    0.0000 C   0  0
    9.3101   -5.0000    0.0000 C   0  0
    5.0000   -9.1432    0.0000 C   0  0
  2  1  2  0
  3  4  2  0
  4  8  1  0
  5  1  1  0
  6  2  1  0
  7  1  1  0
  8  9  1  0
  9  6  1  0
 10 11  1  0
 11  7  2  0
 12  3  1  0
 13  7  1  0
 14  2  1  0
 15  4  1  0
 16 15  2  0
 17  5  2  0
 18 16  1  0
 19 12  1  0
 20 17  1  0
 20 14  2  0
 10  6  2  0
 18 12  2  0
M  END
> <COMPOUND_ID>
DNDI1417044

$$$$

  SciTegic04051205032D

 20 21  0  0  0  0            999 V2000
    5.7163   -6.6698    0.0000 N   0  3
    9.2810   -7.8844    0.0000 C   0  0
    9.2810   -8.7085    0.0000 N   0  0
    6.4302   -6.2553    0.0000 C   0  0
    7.8652   -5.4145    0.0000 C   0  0
    8.5671   -5.0000    0.0000 C   0  0
    9.2810   -5.4049    0.0000 C   0  0
    7.1537   -5.0048    0.0000 C   0  0
    9.9949   -7.4699    0.0000 C   0  0
    8.5647   -7.4699    0.0000 C   0  0
    9.2810   -6.2266    0.0000 C   0  0
    6.4302   -5.4241    0.0000 C   0  0
    5.0000   -6.2553    0.0000 C   0  0
    9.9949   -6.6362    0.0000 C   0  0
    8.5647   -6.6411    0.0000 C   0  0
    5.7163   -7.4867    0.0000 C   0  0
    5.0000   -5.4241    0.0000 C   0  0
    8.5671   -9.1229    0.0000 C   0  0
    9.9853   -9.0966    0.0000 C   0  0
    5.7163   -5.0048    0.0000 C   0  0
  2 10  1  0
  3  2  1  0
  4  1  1  0
  5  8  2  0
  6  5  1  0
  7  6  2  0
  8 12  1  0
  9 14  1  0
 10 15  2  0
 11  7  1  0
 12  4  2  0
 13  1  2  0
 14 11  2  0
 15 11  1  0
 16  1  1  0
 17 13  1  0
 18  3  1  0
 19  3  1  0
 20 17  2  0
 20 12  1  0
  2  9  2  0
M  CHG  1   1   1
M  END
> <COMPOUND_ID>
DNDI1417045

$$$$

  SciTegic04051205032D

 20 22  0  0  0  0            999 V2000
   10.1578   -6.5534    0.0000 N   0  0
    9.7983   -5.7925    0.0000 C   0  0
   10.4001   -5.2475    0.0000 N   0  0
    9.7490   -7.2688    0.0000 C   0  0
   10.9566   -6.4739    0.0000 C   0  0
    8.9200   -7.2688    0.0000 C   0  0
   11.1269   -5.6449    0.0000 C   0  0
    8.5112   -6.5648    0.0000 C   0  0
   10.1578   -7.9729    0.0000 O   0  0
    7.6747   -6.5837    0.0000 C   0  0
    6.0281   -6.5875    0.0000 C   0  0
    5.1650   -6.6102    0.0000 F   0  0
    7.2507   -5.8720    0.0000 C   0  0
    7.2659   -7.2802    0.0000 C   0  0
    6.4331   -5.8607    0.0000 C   0  0
    6.4482   -7.2915    0.0000 C   0  0
   11.5812   -6.9963    0.0000 C   0  0
   11.9294   -5.4026    0.0000 C   0  0
   12.3836   -6.7540    0.0000 C   0  0
   12.5237   -5.9515    0.0000 C   0  0
  2  1  1  0
  3  2  2  0
  4  1  1  0
  5  1  1  0
  6  4  1  0
  7  5  1  0
  8  6  2  0
  9  4  2  0
 10  8  1  0
 11 16  2  0
 12 11  1  0
 13 10  1  0
 14 10  2  0
 15 13  2  0
 16 14  1  0
 17  5  2  0
 18  7  2  0
 19 17  1  0
 20 19  2  0
  3  7  1  0
 20 18  1  0
 11 15  1  0
M  END
> <COMPOUND_ID>
DNDI1417046

$$$$

  SciTegic04051205032D

 20 22  0  0  0  0            999 V2000
    7.1304   -6.6780    0.0000 C   0  0
    5.6953   -6.6758    0.0000 N   0  0
    6.3972   -6.2613    0.0000 C   0  0
    7.8412   -6.2724    0.0000 C   0  0
    5.7041   -7.5069    0.0000 C   0  0
    7.1304   -7.5136    0.0000 C   0  0
    6.4240   -7.9281    0.0000 N   0  0
    8.5543   -6.6891    0.0000 C   0  0
    9.2340   -6.2768    0.0000 C   0  0
    8.5610   -7.5069    0.0000 C   0  0
    7.8479   -7.9192    0.0000 C   0  0
    9.9693   -6.6780    0.0000 C   0  0
    6.3972   -5.4479    0.0000 N   0  0
    5.0000   -7.9192    0.0000 N   0  0
   10.6780   -6.2412    0.0000 C   0  0
    7.8412   -5.4590    0.0000 C   0  0
   11.3933   -6.6223    0.0000 O   0  0
    9.2117   -5.4412    0.0000 C   0  0
    9.9159   -5.0000    0.0000 C   0  0
   10.6491   -5.4011    0.0000 C   0  0
  2  3  2  0
  3  1  1  0
  4  1  1  0
  5  2  1  0
  6  1  2  0
  7  6  1  0
  8  4  2  0
  9  8  1  0
 10  8  1  0
 11  6  1  0
 12  9  1  0
 13  3  1  0
 14  5  1  0
 15 12  2  0
 16  4  1  0
 17 15  1  0
 18  9  2  0
 19 18  1  0
 20 19  2  0
  5  7  2  0
 10 11  2  0
 20 15  1  0
M  END
> <COMPOUND_ID>
DNDI1417047

$$$$

  SciTegic04051205032D

 20 22  0  0  0  0            999 V2000
    7.8365   -7.0826    0.0000 C   0  0
    7.8365   -6.2666    0.0000 N   0  0
    9.2898   -7.1682    0.0000 C   0  0
    7.1216   -5.8626    0.0000 C   0  0
    8.5437   -7.5412    0.0000 N   0  0
    7.1216   -7.5022    0.0000 N   0  0
    6.4143   -6.2666    0.0000 C   0  0
    9.9813   -7.6111    0.0000 N   0  0
    9.3286   -6.3365    0.0000 N   0  0
    6.4143   -7.0826    0.0000 C   0  0
   10.7274   -7.2381    0.0000 C   0  0
   10.0746   -5.9635    0.0000 C   0  0
   10.7818   -6.4221    0.0000 C   0  0
    7.1216   -5.0000    0.0000 N   0  0
    5.6916   -5.8626    0.0000 C   0  0
    5.6916   -7.5022    0.0000 C   0  0
   11.4346   -7.6654    0.0000 C   0  0
   10.0824   -5.1708    0.0000 C   0  0
    5.0000   -6.2666    0.0000 C   0  0
    5.0000   -7.0826    0.0000 C   0  0
  2  1  1  0
  3  5  1  0
  4  2  2  0
  5  1  1  0
  6  1  2  0
  7  4  1  0
  8  3  1  0
  9  3  2  0
 10  6  1  0
 11  8  2  0
 12  9  1  0
 13 12  2  0
 14  4  1  0
 15  7  1  0
 16 10  1  0
 17 11  1  0
 18 12  1  0
 19 15  2  0
 20 16  2  0
  7 10  2  0
 19 20  1  0
 13 11  1  0
M  END
> <COMPOUND_ID>
DNDI1417048

$$$$

  SciTegic04051205032D

 18 19  0  0  0  0            999 V2000
    7.1418   -6.0555    0.0000 S   0  0
    6.3284   -6.1908    0.0000 C   0  0
    5.9580   -6.9331    0.0000 N   0  0
    7.9483   -5.9124    0.0000 N   0  0
    5.7353   -5.6248    0.0000 N   0  0
    5.0000   -6.0168    0.0000 N   0  0
    5.1322   -6.8311    0.0000 C   0  0
    7.2733   -6.8627    0.0000 O   0  0
    7.0004   -5.2405    0.0000 O   0  0
    8.4618   -6.5318    0.0000 C   0  0
    9.2737   -6.3949    0.0000 C   0  0
    8.2391   -5.1299    0.0000 C   0  0
    9.8165   -7.0259    0.0000 C   0  0
    9.5660   -5.6411    0.0000 C   0  0
    9.0556   -5.0000    0.0000 C   0  0
   10.3887   -5.4849    0.0000 C   0  0
   10.6322   -6.8797    0.0000 C   0  0
   10.9268   -6.1042    0.0000 C   0  0
  2  1  1  0
  3  2  2  0
  4  1  1  0
  5  2  1  0
  6  5  1  0
  7  3  1  0
  8  1  2  0
  9  1  2  0
 10  4  1  0
 11 10  1  0
 12  4  1  0
 13 11  2  0
 14 11  1  0
 15 12  1  0
 16 14  2  0
 17 13  1  0
 18 16  1  0
  7  6  2  0
 18 17  2  0
M  END
> <COMPOUND_ID>
DNDI1417049

$$$$

  SciTegic04051205032D

 20 21  0  0  0  0            999 V2000
   13.2713   -5.9661    0.0000 C   0  0
   12.4349   -5.9661    0.0000 C   0  0
   13.6802   -6.6787    0.0000 N   0  0
   10.7992   -5.9661    0.0000 C   0  0
    9.9628   -5.9661    0.0000 C   0  0
   12.0446   -5.2475    0.0000 C   0  0
   12.0197   -6.6787    0.0000 C   0  0
   11.2205   -6.6787    0.0000 C   0  0
   11.2205   -5.2475    0.0000 C   0  0
    9.5848   -5.2475    0.0000 C   0  0
    9.5539   -6.6787    0.0000 C   0  0
   13.6802   -5.2475    0.0000 N   0  0
    8.7484   -6.6787    0.0000 C   0  0
    8.7484   -5.2475    0.0000 C   0  0
    8.3271   -5.9661    0.0000 C   0  0
    7.5030   -5.9661    0.0000 C   0  0
    7.0818   -6.6787    0.0000 C   0  0
    5.8364   -7.3850    0.0000 C   0  0
    6.2453   -6.6787    0.0000 C   0  0
    5.0000   -7.3850    0.0000 C   0  0
  2  1  1  0
  3  1  2  0
  4  8  2  0
  5  4  1  0
  6  2  1  0
  7  2  2  0
  8  7  1  0
  9  6  2  0
 10  5  2  0
 11  5  1  0
 12  1  1  0
 13 11  2  0
 14 10  1  0
 15 13  1  0
 16 15  1  0
 17 16  1  0
 18 19  1  0
 19 17  1  0
 20 18  1  0
  4  9  1  0
 15 14  2  0
M  END
> <COMPOUND_ID>
DNDI1417050

$$$$

  SciTegic04051205032D

 17 18  0  0  0  0            999 V2000
    8.6126   -7.6880    0.0000 C   0  0
    7.8702   -7.3374    0.0000 N   0  0
    7.1106   -6.9765    0.0000 C   0  0
    9.3035   -7.2170    0.0000 C   0  0
    7.0452   -6.1584    0.0000 C   0  0
    6.4334   -7.4371    0.0000 C   0  0
    9.2382   -6.3990    0.0000 N   0  0
    6.3096   -5.8009    0.0000 C   0  0
    5.6840   -7.0865    0.0000 C   0  0
    8.6883   -8.5095    0.0000 O   0  0
    5.6360   -6.2615    0.0000 C   0  0
    5.0000   -7.5540    0.0000 Cl  0  0
    6.2340   -5.0000    0.0000 Cl  0  0
    9.9257   -5.9212    0.0000 C   0  0
   10.0528   -7.5746    0.0000 C   0  0
   10.6682   -6.2856    0.0000 C   0  0
   10.7369   -7.1036    0.0000 C   0  0
  2  1  1  0
  3  2  1  0
  4  1  1  0
  5  3  1  0
  6  3  2  0
  7  4  2  0
  8  5  2  0
  9  6  1  0
 10  1  2  0
 11  9  2  0
 12  9  1  0
 13  8  1  0
 14  7  1  0
 15  4  1  0
 16 17  1  0
 17 15  2  0
 14 16  2  0
  8 11  1  0
M  END
> <COMPOUND_ID>
DNDI1417051

$$$$

  SciTegic04051205032D

 20 22  0  0  0  0            999 V2000
    7.7978   -6.1926    0.0000 C   0  0
    7.7978   -5.3953    0.0000 N   0  0
    7.1001   -6.5844    0.0000 N   0  0
    6.3989   -6.1926    0.0000 C   0  0
    6.3989   -5.3953    0.0000 C   0  0
    8.6501   -6.1926    0.0000 N   0  0
    7.1001   -7.3200    0.0000 C   0  0
    8.4439   -8.7807    0.0000 C   0  0
    9.8703   -9.5884    0.0000 C   0  0
    9.1485   -8.3682    0.0000 C   0  0
    8.4439   -9.6090    0.0000 C   0  0
    9.1520  -10.0077    0.0000 C   0  0
    9.8703   -8.7498    0.0000 C   0  0
    7.7394   -8.3855    0.0000 O   0  0
    7.7394   -7.7221    0.0000 C   0  0
    5.7011   -6.5844    0.0000 C   0  0
    5.7011   -5.0000    0.0000 C   0  0
   10.5508   -9.9837    0.0000 C   0  0
    5.0000   -6.1926    0.0000 C   0  0
    5.0000   -5.3953    0.0000 C   0  0
  2  1  2  0
  3  1  1  0
  4  3  1  0
  5  2  1  0
  6  1  1  0
  7  3  1  0
  8 14  1  0
  9 12  1  0
 10  8  2  0
 11  8  1  0
 12 11  2  0
 13 10  1  0
 14 15  1  0
 15  7  1  0
 16  4  1  0
 17  5  1  0
 18  9  1  0
 19 16  2  0
 20 17  2  0
  5  4  2  0
 20 19  1  0
 13  9  2  0
M  END
> <COMPOUND_ID>
DNDI1417052

$$$$

  SciTegic04051205032D

 20 22  0  0  0  0            999 V2000
    7.8587   -6.8718    0.0000 C   0  0
    7.8587   -7.6783    0.0000 C   0  0
    7.1395   -8.0793    0.0000 C   0  0
    7.1395   -6.4641    0.0000 O   0  0
    6.4450   -7.6783    0.0000 C   0  0
    6.4450   -6.8718    0.0000 C   0  0
    8.5823   -6.4641    0.0000 C   0  0
    9.3014   -6.8718    0.0000 C   0  0
   10.0251   -6.4417    0.0000 C   0  0
    7.1395   -8.9194    0.0000 O   0  0
   10.0251   -5.6576    0.0000 C   0  0
    8.5823   -5.6284    0.0000 C   0  0
    9.3014   -5.2184    0.0000 C   0  0
    8.6024   -8.0637    0.0000 C   0  0
   10.7666   -6.8427    0.0000 O   0  0
   10.7666   -5.2476    0.0000 O   0  0
    5.7214   -8.0793    0.0000 C   0  0
    5.7214   -6.4641    0.0000 C   0  0
    5.0000   -7.6783    0.0000 C   0  0
    5.0000   -6.8718    0.0000 C   0  0
  2  1  2  0
  3  2  1  0
  4  1  1  0
  5  3  1  0
  6  4  1  0
  7  1  1  0
  8  7  2  0
  9  8  1  0
 10  3  2  0
 11 13  1  0
 12  7  1  0
 13 12  2  0
 14  2  1  0
 15  9  1  0
 16 11  1  0
 17  5  1  0
 18  6  1  0
 19 17  2  0
 20 18  2  0
  5  6  2  0
 19 20  1  0
 11  9  2  0
M  END
> <COMPOUND_ID>
DNDI1417053

$$$$

  SciTegic04051205032D

 20 22  0  0  0  0            999 V2000
    7.8651   -7.3058    0.0000 C   0  0
    7.8610   -6.4783    0.0000 O   0  0
    7.1457   -6.0708    0.0000 C   0  0
    7.1540   -7.7216    0.0000 N   0  0
    6.4388   -6.4825    0.0000 C   0  0
    6.4429   -7.3141    0.0000 C   0  0
    8.5762   -7.7175    0.0000 N   0  0
    7.1415   -5.2475    0.0000 O   0  0
    9.2872   -7.2975    0.0000 C   0  0
   10.7053   -6.4700    0.0000 C   0  0
    5.7194   -6.0708    0.0000 C   0  0
    9.2790   -6.4825    0.0000 C   0  0
    9.9942   -7.7091    0.0000 C   0  0
    9.9859   -6.0624    0.0000 C   0  0
   10.7094   -7.2934    0.0000 C   0  0
    5.7277   -7.7300    0.0000 C   0  0
   11.4164   -6.0500    0.0000 O   0  0
   12.1316   -6.4575    0.0000 C   0  0
    5.0000   -6.4866    0.0000 C   0  0
    5.0042   -7.3224    0.0000 C   0  0
  2  1  1  0
  3  2  1  0
  4  1  2  0
  5  3  1  0
  6  4  1  0
  7  1  1  0
  8  3  2  0
  9  7  1  0
 10 14  1  0
 11  5  1  0
 12  9  1  0
 13  9  2  0
 14 12  2  0
 15 13  1  0
 16  6  1  0
 17 10  1  0
 18 17  1  0
 19 11  2  0
 20 16  2  0
  5  6  2  0
 10 15  2  0
 19 20  1  0
M  END
> <COMPOUND_ID>
DNDI1417054

$$$$

  SciTegic04051205032D

 20 22  0  0  0  0            999 V2000
    6.4184   -9.9401    0.0000 C   0  0
    6.4184   -9.1256    0.0000 C   0  0
    7.8571   -7.4721    0.0000 N   0  0
    5.7173  -10.3494    0.0000 N   0  0
    7.1398   -8.7162    0.0000 C   0  0
    7.1398  -10.3494    0.0000 C   0  0
    7.8571   -6.6333    0.0000 C   0  0
    7.1398   -7.8814    0.0000 C   0  0
    8.5581   -6.2280    0.0000 C   0  0
    7.8571   -9.1256    0.0000 C   0  0
    7.8571   -9.9401    0.0000 C   0  0
    9.2795   -6.6333    0.0000 F   0  0
    7.1398  -11.1883    0.0000 O   0  0
    5.7173   -8.7162    0.0000 C   0  0
    5.0000   -9.9401    0.0000 C   0  0
    7.1195   -6.2280    0.0000 C   0  0
    8.5581   -5.4093    0.0000 C   0  0
    5.0000   -9.1256    0.0000 C   0  0
    7.1195   -5.3891    0.0000 C   0  0
    7.8571   -5.0000    0.0000 C   0  0
  2  1  2  0
  3  8  1  0
  4  1  1  0
  5  2  1  0
  6  1  1  0
  7  3  1  0
  8  5  1  0
  9  7  2  0
 10 11  1  0
 11  6  2  0
 12  9  1  0
 13  6  1  0
 14  2  1  0
 15  4  2  0
 16  7  1  0
 17  9  1  0
 18 15  1  0
 19 16  2  0
 20 19  1  0
 18 14  2  0
 10  5  2  0
 20 17  2  0
M  END
> <COMPOUND_ID>
DNDI1417055

$$$$

  SciTegic04051205032D

 20 21  0  0  0  0            999 V2000
    6.5689   -6.3398    0.0000 C   0  0
    7.3310   -6.0559    0.0000 C   0  0
    8.7355   -6.2950    0.0000 C   0  0
    7.9834   -6.5788    0.0000 C   0  0
    9.3930   -6.8080    0.0000 C   0  0
    5.9264   -5.8168    0.0000 C   0  0
    6.4344   -7.1517    0.0000 C   0  0
    7.4804   -5.2241    0.0000 O   0  0
    8.8650   -5.4632    0.0000 O   0  0
   10.1401   -6.5191    0.0000 C   0  0
    5.1593   -6.1156    0.0000 C   0  0
    5.6524   -7.4356    0.0000 C   0  0
    5.0000   -6.9275    0.0000 C   0  0
    6.0310   -5.0000    0.0000 O   0  0
    9.2585   -7.6099    0.0000 C   0  0
   10.2596   -5.7023    0.0000 C   0  0
   10.7925   -7.0321    0.0000 C   0  0
    5.5080   -8.2275    0.0000 C   0  0
    9.8960   -8.1478    0.0000 C   0  0
   10.6730   -7.8489    0.0000 C   0  0
  2  1  1  0
  3  4  1  0
  4  2  1  0
  5  3  1  0
  6  1  2  0
  7  1  1  0
  8  2  2  0
  9  3  2  0
 10  5  1  0
 11  6  1  0
 12  7  2  0
 13 12  1  0
 14  6  1  0
 15  5  2  0
 16 10  1  0
 17 10  2  0
 18 12  1  0
 19 15  1  0
 20 19  2  0
 11 13  2  0
 17 20  1  0
M  END
> <COMPOUND_ID>
DNDI1417056

$$$$

  SciTegic04051205032D

 19 22  0  0  0  0            999 V2000
    8.3576   -5.9889    0.0000 S   0  0
    7.2876   -5.9889    0.0000 N   0  0
    7.1098   -6.7484    0.0000 C   0  0
    7.8211   -7.1794    0.0000 C   0  0
    7.8211   -7.9872    0.0000 C   0  0
    8.5294   -6.7484    0.0000 C   0  0
    7.1098   -8.4121    0.0000 C   0  0
    6.4045   -7.1794    0.0000 C   0  0
    6.4045   -7.9872    0.0000 C   0  0
    9.1713   -5.9889    0.0000 O   0  0
    8.3395   -5.2475    0.0000 O   0  0
    7.1098   -9.2319    0.0000 O   0  0
    8.5294   -8.4121    0.0000 C   0  0
    9.2406   -7.1794    0.0000 C   0  0
    5.7083   -6.7484    0.0000 C   0  0
    5.7083   -8.4121    0.0000 C   0  0
    9.2406   -7.9872    0.0000 C   0  0
    5.0000   -7.9872    0.0000 C   0  0
    5.0000   -7.1794    0.0000 C   0  0
  2  1  1  0
  3  2  2  0
  4  6  2  0
  5  4  1  0
  6  1  1  0
  7  5  1  0
  8  3  1  0
  9  8  1  0
 10  1  2  0
 11  1  2  0
 12  7  2  0
 13 17  1  0
 14  6  1  0
 15  8  2  0
 16  9  2  0
 17 14  2  0
 18 19  2  0
 19 15  1  0
  3  4  1  0
 13  5  2  0
  9  7  1  0
 18 16  1  0
M  END
> <COMPOUND_ID>
DNDI1417057

$$$$

  SciTegic04051205032D

 20 22  0  0  0  0            999 V2000
    7.0965  -10.8344    0.0000 C   0  0
    5.6759   -8.3517    0.0000 N   0  0
    6.3793  -10.4115    0.0000 C   0  0
    7.1885  -11.6528    0.0000 O   0  0
    6.0850   -7.0827    0.0000 C   0  0
    6.3379   -7.8689    0.0000 C   0  0
    6.3793   -9.5839    0.0000 C   0  0
    7.8552  -10.4942    0.0000 C   0  0
    8.0022  -11.8275    0.0000 C   0  0
    8.4069  -11.1103    0.0000 C   0  0
    5.6759  -10.8344    0.0000 O   0  0
    5.6759   -9.1792    0.0000 C   0  0
    5.2574   -7.0827    0.0000 C   0  0
    6.5678   -6.4206    0.0000 C   0  0
    5.0000   -7.8689    0.0000 C   0  0
    6.2367   -5.6620    0.0000 C   0  0
    7.3954   -6.4942    0.0000 C   0  0
    7.8827   -5.8322    0.0000 C   0  0
    6.7241   -5.0000    0.0000 C   0  0
    7.5379   -5.0874    0.0000 C   0  0
  2 12  1  0
  3  1  1  0
  4  1  1  0
  5  6  1  0
  6  2  1  0
  7  3  1  0
  8  1  2  0
  9  4  1  0
 10  8  1  0
 11  3  2  0
 12  7  1  0
 13 15  1  0
 14  5  1  0
 15  2  1  0
 16 14  2  0
 17 14  1  0
 18 17  2  0
 19 16  1  0
 20 18  1  0
  9 10  2  0
  5 13  1  0
 20 19  2  0
M  END
> <COMPOUND_ID>
DNDI1417058

$$$$

  SciTegic04051205032D

 20 22  0  0  0  0            999 V2000
    7.1412   -8.7222    0.0000 C   0  0
    7.1412  -10.3719    0.0000 N   0  0
    7.8594   -9.1346    0.0000 C   0  0
    6.4297   -9.1346    0.0000 C   0  0
    7.8594   -9.9595    0.0000 C   0  0
    6.4297   -9.9595    0.0000 C   0  0
    7.1412   -7.8973    0.0000 N   0  0
    8.5675   -5.4125    0.0000 N   0  0
    8.6397   -8.8802    0.0000 C   0  0
    8.6397  -10.2138    0.0000 C   0  0
    5.7183   -8.7222    0.0000 C   0  0
    7.8526   -6.6566    0.0000 C   0  0
    9.1243   -9.5504    0.0000 C   0  0
    5.7183  -10.3719    0.0000 C   0  0
    7.8526   -7.4849    0.0000 C   0  0
    8.5675   -6.2442    0.0000 C   0  0
    7.8491   -5.0000    0.0000 C   0  0
    9.2789   -5.0000    0.0000 C   0  0
    5.0000   -9.1346    0.0000 C   0  0
    5.0000   -9.9595    0.0000 C   0  0
  2  6  1  0
  3  1  2  0
  4  1  1  0
  5  3  1  0
  6  4  1  0
  7  1  1  0
  8 16  1  0
  9  3  1  0
 10  5  1  0
 11  4  2  0
 12 15  1  0
 13  9  1  0
 14  6  2  0
 15  7  1  0
 16 12  1  0
 17  8  1  0
 18  8  1  0
 19 11  1  0
 20 19  2  0
  5  2  2  0
 13 10  1  0
 20 14  1  0
M  END
> <COMPOUND_ID>
DNDI1417059

$$$$

  SciTegic04051205032D

 20 23  0  0  0  0            999 V2000
    7.6230   -6.4296    0.0000 C   0  0
    6.0956   -6.4296    0.0000 C   0  0
    8.4335   -6.4296    0.0000 C   0  0
    6.9428   -6.7392    0.0000 C   0  0
    7.0731   -7.1180    0.0000 C   0  0
    7.6230   -5.6843    0.0000 C   0  0
    8.8448   -5.7128    0.0000 C   0  0
    6.3563   -6.8084    0.0000 C   0  0
    6.9184   -5.3218    0.0000 C   0  0
    9.6554   -5.7250    0.0000 C   0  0
    6.0956   -5.6476    0.0000 C   0  0
    5.5091   -7.1180    0.0000 C   0  0
   10.1034   -6.3971    0.0000 C   0  0
    8.8734   -7.1302    0.0000 C   0  0
    6.3563   -5.9897    0.0000 C   0  0
    9.7043   -7.1302    0.0000 C   0  0
    5.3543   -6.4296    0.0000 C   0  0
    5.0000   -5.6843    0.0000 N   0  0
   10.0464   -5.0000    0.0000 C   0  0
   10.9262   -6.4093    0.0000 C   0  0
  2  4  1  0
  3  1  1  0
  4  1  1  0
  5  1  1  0
  6  1  1  0
  7  3  1  0
  8  5  1  0
  9  6  1  0
 10  7  2  0
 11  9  1  0
 12  8  1  0
 13 16  2  0
 14  3  2  0
 15  9  1  0
 16 14  1  0
 17  2  1  0
 18 17  1  0
 19 10  1  0
 20 13  1  0
  8 15  1  0
  2 11  1  0
  2 12  1  0
 10 13  1  0
M  END
> <COMPOUND_ID>
DNDI1417060

$$$$

  SciTegic04051205032D

 17 18  0  0  0  0            999 V2000
    5.6680   -6.5105    0.0000 N   0  3
    8.3841   -8.0611    0.0000 C   0  0
    6.3434   -6.0131    0.0000 C   0  0
    7.7965   -8.6365    0.0000 N   0  0
    9.1033   -8.4341    0.0000 S   0  0
    6.0752   -5.2475    0.0000 S   0  0
    8.1695   -7.2589    0.0000 C   0  0
    7.3674   -7.0419    0.0000 C   0  0
    7.1504   -6.2398    0.0000 C   0  0
    5.0000   -6.0204    0.0000 C   0  0
    5.6680   -7.3370    0.0000 C   0  0
    5.2633   -5.2402    0.0000 C   0  0
    8.9667   -9.2509    0.0000 C   0  0
    8.1573   -9.3557    0.0000 C   0  0
    6.9675   -8.5097    0.0000 C   0  0
    6.3799   -7.7563    0.0000 C   0  0
    6.4482   -9.1606    0.0000 C   0  0
  2  7  2  0
  3  1  2  0
  4  2  1  0
  5  2  1  0
  6  3  1  0
  7  8  1  0
  8  9  2  0
  9  3  1  0
 10  1  1  0
 11  1  1  0
 12 10  1  0
 13  5  1  0
 14  4  1  0
 15  4  1  0
 16 11  1  0
 17 15  1  0
 12  6  1  0
 13 14  1  0
M  CHG  1   1   1
M  END
> <COMPOUND_ID>
DNDI1417061

$$$$

  SciTegic04051205032D

 17 18  0  0  0  0            999 V2000
    8.2584   -7.3305    0.0000 N   0  0
    8.7321   -6.6443    0.0000 C   0  0
    7.4620   -6.2522    0.0000 C   0  0
    8.3074   -5.9949    0.0000 C   0  0
    7.4620   -7.0732    0.0000 C   0  0
    8.5238   -8.1024    0.0000 C   0  0
    9.3244   -8.2617    0.0000 C   0  0
    6.7391   -7.4979    0.0000 C   0  0
    6.7391   -5.8193    0.0000 C   0  0
    9.5653   -6.6443    0.0000 O   0  0
    8.6382   -5.2475    0.0000 O   0  0
    9.5939   -9.0459    0.0000 C   0  0
    6.0365   -6.2522    0.0000 C   0  0
    6.0365   -7.0732    0.0000 C   0  0
   10.3985   -9.2010    0.0000 Cl  0  0
    5.3300   -5.8602    0.0000 Cl  0  0
    9.0630   -9.6585    0.0000 C   0  0
  2  1  1  0
  3  5  2  0
  4  2  1  0
  5  1  1  0
  6  1  1  0
  7  6  1  0
  8  5  1  0
  9  3  1  0
 10  2  2  0
 11  4  2  0
 12  7  2  0
 13 14  1  0
 14  8  2  0
 15 12  1  0
 16 13  1  0
 17 12  1  0
  4  3  1  0
 13  9  2  0
M  END
> <COMPOUND_ID>
DNDI1417062

$$$$

  SciTegic04051205032D

 20 21  0  0  0  0            999 V2000
    7.1790   -6.5363    0.0000 N   0  0
    6.8250   -5.0000    0.0000 C   0  0
    6.2476   -5.5396    0.0000 C   0  0
    6.4264   -6.3164    0.0000 N   0  0
    7.7564   -6.0001    0.0000 C   0  0
    8.5468   -6.0139    0.0000 C   0  0
    8.9145   -6.7150    0.0000 C   0  0
   10.3717   -7.4299    0.0000 N   0  0
    9.7050   -6.7356    0.0000 N   0  0
    8.5056   -7.3852    0.0000 O   0  0
   11.6846   -7.8044    0.0000 C   0  0
   11.4646   -8.5674    0.0000 C   0  0
   11.1347   -7.2373    0.0000 C   0  0
    5.4950   -5.3163    0.0000 O   0  0
   12.0145   -9.1310    0.0000 C   0  0
   12.7808   -8.9558    0.0000 C   0  0
   11.7877   -9.8905    0.0000 C   0  0
   12.3341  -10.4679    0.0000 C   0  0
   13.3273   -9.5228    0.0000 C   0  0
   13.0971  -10.2755    0.0000 C   0  0
  2  5  1  0
  3  4  1  0
  4  1  1  0
  5  1  2  0
  6  5  1  0
  7  6  1  0
  8  9  1  0
  9  7  1  0
 10  7  2  0
 11 13  1  0
 12 11  2  0
 13  8  2  0
 14  3  1  0
 15 12  1  0
 16 15  1  0
 17 15  2  0
 18 17  1  0
 19 16  2  0
 20 18  2  0
  2  3  2  0
 19 20  1  0
M  END
> <COMPOUND_ID>
DNDI1417063

$$$$

  SciTegic04051205032D

 20 21  0  0  0  0            999 V2000
    8.5604   -7.9016    0.0000 C   0  0
    7.8577   -7.4843    0.0000 N   0  0
    9.2906   -7.4843    0.0000 C   0  0
    8.5521   -8.7306    0.0000 C   0  0
    7.8384   -9.1314    0.0000 N   0  0
    7.1384   -7.8906    0.0000 C   0  0
    9.2989   -6.6471    0.0000 N   0  0
    7.1274   -8.7224    0.0000 C   0  0
   10.0043   -7.8906    0.0000 O   0  0
    6.4247   -7.4733    0.0000 C   0  0
    9.2549   -9.1561    0.0000 N   0  0
   10.0098   -6.2353    0.0000 C   0  0
    5.7137   -7.8824    0.0000 C   0  0
    6.4247   -6.6471    0.0000 C   0  0
   10.0098   -5.4090    0.0000 C   0  0
   10.7236   -6.6471    0.0000 C   0  0
   10.7236   -5.0000    0.0000 C   0  0
    5.0000   -7.4651    0.0000 C   0  0
    5.7137   -6.2353    0.0000 C   0  0
    5.0082   -6.6278    0.0000 C   0  0
  2  1  2  0
  3  1  1  0
  4  1  1  0
  5  4  2  0
  6  2  1  0
  7  3  1  0
  8  5  1  0
  9  3  2  0
 10  6  1  0
 11  4  1  0
 12  7  1  0
 13 10  1  0
 14 10  2  0
 15 12  1  0
 16 12  1  0
 17 15  1  0
 18 13  2  0
 19 14  1  0
 20 19  2  0
  8  6  2  0
 20 18  1  0
M  END
> <COMPOUND_ID>
DNDI1417064

$$$$

  SciTegic04051205032D

 20 22  0  0  0  0            999 V2000
    8.5284   -5.9114    0.0000 N   0  0
    7.7064   -5.9114    0.0000 C   0  0
    9.0167   -6.5751    0.0000 C   0  0
    9.0098   -5.2373    0.0000 N   0  0
    9.7939   -6.3103    0.0000 C   0  0
    7.2112   -5.2511    0.0000 N   0  0
    7.2215   -6.5854    0.0000 N   0  0
    9.7939   -5.4884    0.0000 C   0  0
    6.4306   -5.5124    0.0000 C   0  0
    6.4374   -6.3378    0.0000 C   0  0
    8.7657   -7.3591    0.0000 O   0  0
   10.4680   -6.7952    0.0000 C   0  0
   10.4576   -5.0000    0.0000 C   0  0
    5.7119   -5.0997    0.0000 C   0  0
    5.7119   -6.7471    0.0000 C   0  0
   10.3820   -7.6102    0.0000 C   0  0
   11.0560   -8.0986    0.0000 C   0  0
    5.0000   -6.3378    0.0000 C   0  0
    5.0000   -5.5124    0.0000 C   0  0
   10.9769   -8.9170    0.0000 C   0  0
  2  1  1  0
  3  1  1  0
  4  1  1  0
  5  3  2  0
  6  2  2  0
  7  2  1  0
  8  4  2  0
  9  6  1  0
 10  7  1  0
 11  3  1  0
 12  5  1  0
 13  8  1  0
 14  9  2  0
 15 10  2  0
 16 12  1  0
 17 16  1  0
 18 15  1  0
 19 14  1  0
 20 17  1  0
  5  8  1  0
  9 10  1  0
 19 18  2  0
M  END
> <COMPOUND_ID>
DNDI1417065

$$$$

  SciTegic04051205032D

 20 21  0  0  0  0            999 V2000
    7.2004   -7.4804    0.0000 N   0  0
    6.4788   -7.0545    0.0000 C   0  0
    7.2004   -8.2849    0.0000 C   0  0
    5.7571   -7.4804    0.0000 C   0  0
    6.4788   -8.7108    0.0000 N   0  0
    5.7413   -8.2849    0.0000 C   0  0
    6.4788   -6.2185    0.0000 N   0  0
    7.9103   -8.7147    0.0000 N   0  0
    8.6398   -8.3007    0.0000 C   0  0
    9.3299   -8.7147    0.0000 C   0  0
    7.2004   -5.8281    0.0000 C   0  0
    5.7571   -5.8281    0.0000 C   0  0
    5.0000   -8.6793    0.0000 C   0  0
   10.0594   -8.3322    0.0000 C   0  0
    9.3299   -9.5310    0.0000 C   0  0
    5.7571   -5.0000    0.0000 C   0  0
    7.9103   -6.2501    0.0000 C   0  0
   10.0279   -9.9451    0.0000 C   0  0
   10.7692   -8.7147    0.0000 C   0  0
   10.7495   -9.5310    0.0000 C   0  0
  2  1  1  0
  3  1  2  0
  4  2  2  0
  5  3  1  0
  6  5  2  0
  7  2  1  0
  8  3  1  0
  9  8  1  0
 10  9  1  0
 11  7  1  0
 12  7  1  0
 13  6  1  0
 14 10  2  0
 15 10  1  0
 16 12  1  0
 17 11  1  0
 18 15  2  0
 19 14  1  0
 20 18  1  0
  4  6  1  0
 19 20  2  0
M  END
> <COMPOUND_ID>
DNDI1417066

$$$$

  SciTegic04051205032D

 14 15  0  0  0  0            999 V2000
    6.4109   -5.8664    0.0000 C   0  0
    5.9983   -6.5785    0.0000 N   0  0
    5.8518   -5.2475    0.0000 S   0  0
    7.2516   -5.8664    0.0000 N   0  0
    7.6842   -6.5941    0.0000 C   0  0
    5.1243   -5.5892    0.0000 C   0  0
    5.1952   -6.4720    0.0000 C   0  0
    8.5028   -8.0160    0.0000 C   0  0
    8.9420   -8.7414    0.0000 Br  0  0
    7.2716   -7.3017    0.0000 C   0  0
    8.5028   -6.5941    0.0000 C   0  0
    8.9220   -7.3017    0.0000 C   0  0
    7.6842   -8.0160    0.0000 C   0  0
    5.0000   -7.1974    0.0000 C   0  0
  2  1  1  0
  3  1  1  0
  4  1  2  0
  5  4  1  0
  6  3  1  0
  7  2  1  0
  8 13  1  0
  9  8  1  0
 10  5  1  0
 11  5  2  0
 12 11  1  0
 13 10  2  0
 14  7  1  0
  6  7  1  0
  8 12  2  0
M  END
> <COMPOUND_ID>
DNDI1417067

$$$$

  SciTegic04051205032D

 20 21  0  0  0  0            999 V2000
   10.7477   -6.4541    0.0000 C   0  0
   10.0395   -6.8563    0.0000 N   0  0
    8.5442   -6.9044    0.0000 C   0  0
   11.4593   -6.8563    0.0000 C   0  0
    9.3314   -6.4541    0.0000 O   0  0
    7.8360   -6.4885    0.0000 C   0  0
    8.5305   -7.7948    0.0000 O   0  0
   12.8652   -6.8563    0.0000 N   0  0
    7.8360   -5.6703    0.0000 C   0  0
    7.1279   -6.9044    0.0000 C   0  0
   10.7477   -5.6359    0.0000 N   0  0
   12.1674   -6.4541    0.0000 C   0  0
    6.4197   -5.6566    0.0000 C   0  0
    7.1416   -5.2681    0.0000 C   0  0
    6.4197   -6.4747    0.0000 C   0  0
    5.7081   -5.2475    0.0000 O   0  0
   11.4593   -7.6745    0.0000 C   0  0
   12.8755   -7.6745    0.0000 C   0  0
    5.0000   -5.6497    0.0000 C   0  0
   12.1674   -8.0904    0.0000 C   0  0
  2  1  2  0
  3  5  1  0
  4  1  1  0
  5  2  1  0
  6  3  1  0
  7  3  2  0
  8 12  1  0
  9  6  2  0
 10  6  1  0
 11  1  1  0
 12  4  2  0
 13 15  1  0
 14  9  1  0
 15 10  2  0
 16 13  1  0
 17  4  1  0
 18 20  1  0
 19 16  1  0
 20 17  2  0
 18  8  2  0
 14 13  2  0
M  END
> <COMPOUND_ID>
DNDI1417068

$$$$

  SciTegic04051205032D

 20 21  0  0  0  0            999 V2000
    7.8955   -7.1408    0.0000 N   0  0
    7.4849   -7.8599    0.0000 C   0  0
    9.1273   -6.4240    0.0000 C   0  0
    8.7167   -7.1408    0.0000 N   0  0
    6.6519   -7.8599    0.0000 C   0  0
    6.2318   -7.1408    0.0000 N   0  0
    9.9556   -6.4240    0.0000 O   0  0
    8.7167   -5.7167    0.0000 C   0  0
    7.8955   -5.7167    0.0000 C   0  0
    6.2436   -5.7167    0.0000 C   0  0
    5.4130   -5.7167    0.0000 F   0  0
    6.6424   -5.0000    0.0000 C   0  0
    6.6519   -6.4240    0.0000 C   0  0
    7.4754   -5.0000    0.0000 C   0  0
    7.4849   -6.4240    0.0000 C   0  0
    7.8955   -8.5743    0.0000 C   0  0
    5.4130   -7.1408    0.0000 C   0  0
    6.2436   -8.5648    0.0000 C   0  0
    5.0000   -7.8599    0.0000 C   0  0
    5.4130   -8.5648    0.0000 C   0  0
  2  1  2  0
  3  4  1  0
  4  1  1  0
  5  2  1  0
  6  5  2  0
  7  3  2  0
  8  3  1  0
  9  8  1  0
 10 13  1  0
 11 10  1  0
 12 14  1  0
 13 15  2  0
 14  9  2  0
 15  9  1  0
 16  2  1  0
 17  6  1  0
 18  5  1  0
 19 20  1  0
 20 18  2  0
 17 19  2  0
 10 12  2  0
M  END
> <COMPOUND_ID>
DNDI1417069

$$$$

  SciTegic04051205032D

 20 23  0  0  0  0            999 V2000
    7.8155   -7.6952    0.0000 N   0  0
    8.6406   -7.4373    0.0000 C   0  0
    6.9939   -7.6745    0.0000 C   0  0
    7.8018   -8.5649    0.0000 N   0  0
    8.6234   -8.8330    0.0000 N   0  0
    9.1391   -8.1420    0.0000 N   0  0
    6.3339   -8.2348    0.0000 C   0  0
    6.0142   -7.4510    0.0000 O   0  0
    6.4473   -7.5473    0.0000 C   0  0
    5.3644   -7.1004    0.0000 C   0  0
    5.8732   -6.7360    0.0000 C   0  0
    5.0000   -7.5714    0.0000 O   0  0
    5.4710   -8.2899    0.0000 C   0  0
    8.9122   -6.6226    0.0000 C   0  0
    6.0142   -5.8834    0.0000 O   0  0
    9.7578   -6.4541    0.0000 C   0  0
    8.3449   -5.9832    0.0000 C   0  0
    8.6165   -5.1718    0.0000 C   0  0
   10.0363   -5.6462    0.0000 C   0  0
    9.4656   -5.0000    0.0000 C   0  0
  2  1  1  0
  3  1  1  0
  4  1  1  0
  5  4  2  0
  6  2  2  0
  7  3  1  0
  8  7  1  0
  9  3  1  0
 10 11  1  0
 11  9  1  0
 12 13  1  0
 13  7  1  0
 14  2  1  0
 15 11  2  0
 16 14  2  0
 17 14  1  0
 18 17  2  0
 19 16  1  0
 20 18  1  0
  6  5  1  0
 10  8  1  0
 10 12  1  0
 20 19  2  0
M  END
> <COMPOUND_ID>
DNDI1417070

$$$$

  SciTegic04051205032D

 21 24  0  0  0  0            999 V2000
    9.4138   -8.0627    0.0000 N   0  0
    8.0216   -8.0564    0.0000 C   0  0
    8.0122   -8.8506    0.0000 C   0  0
    9.4075   -8.8664    0.0000 C   0  0
    8.7082   -9.2587    0.0000 C   0  0
    7.4584   -7.4869    0.0000 C   0  0
    6.3384   -6.3447    0.0000 C   0  0
    5.7783   -5.7688    0.0000 N   0  0
    6.6896   -7.6925    0.0000 C   0  0
    7.6736   -6.7086    0.0000 C   0  0
    6.1201   -7.1230    0.0000 C   0  0
    7.1230   -6.1485    0.0000 C   0  0
    8.7082  -10.0560    0.0000 C   0  0
    7.3382   -9.2587    0.0000 C   0  0
   10.1035   -9.2587    0.0000 C   0  0
    7.3382  -10.0560    0.0000 C   0  0
   10.1035  -10.0687    0.0000 C   0  0
    5.9872   -5.0000    0.0000 C   0  0
    5.0000   -5.9745    0.0000 C   0  0
    9.3980  -10.4579    0.0000 C   0  0
    8.0122  -10.4579    0.0000 C   0  0
  2  1  2  0
  3  2  1  0
  4  1  1  0
  5  4  1  0
  6  2  1  0
  7 12  2  0
  8  7  1  0
  9  6  1  0
 10  6  2  0
 11  9  2  0
 12 10  1  0
 13  5  1  0
 14  3  1  0
 15  4  2  0
 16 14  2  0
 17 15  1  0
 18  8  1  0
 19  8  1  0
 20 17  2  0
 21 13  2  0
  5  3  2  0
 20 13  1  0
 21 16  1  0
  7 11  1  0
M  END
> <COMPOUND_ID>
DNDI1417071

$$$$

  SciTegic04051205032D

 17 18  0  0  0  0            999 V2000
    7.7387   -7.4581    0.0000 N   0  0
    7.7387   -8.2956    0.0000 C   0  0
    8.4464   -8.7019    0.0000 S   0  0
    8.4464   -7.0436    0.0000 C   0  0
    9.1625   -7.4581    0.0000 N   0  0
    9.1625   -8.2956    0.0000 C   0  0
    7.0143   -7.0561    0.0000 C   0  0
    6.2982   -7.4707    0.0000 C   0  0
    7.0143   -8.7102    0.0000 S   0  0
    6.2186   -8.2956    0.0000 O   0  0
    5.5485   -7.1441    0.0000 C   0  0
    5.4103   -8.4632    0.0000 C   0  0
    5.0000   -7.7597    0.0000 C   0  0
    9.8786   -7.0561    0.0000 C   0  0
    9.1751   -5.8165    0.0000 O   0  0
    9.8869   -6.2311    0.0000 C   0  0
    9.1834   -5.0000    0.0000 C   0  0
  2  1  1  0
  3  2  1  0
  4  1  1  0
  5  4  1  0
  6  5  1  0
  7  1  1  0
  8  7  1  0
  9  2  2  0
 10  8  1  0
 11  8  2  0
 12 10  1  0
 13 11  1  0
 14  5  1  0
 15 16  1  0
 16 14  1  0
 17 15  1  0
  6  3  1  0
 12 13  2  0
M  END
> <COMPOUND_ID>
DNDI1417072

$$$$

  SciTegic04051205032D

 20 21  0  0  0  0            999 V2000
    7.1443   -6.4846    0.0000 N   0  0
    7.1443   -7.3093    0.0000 C   0  0
    6.4192   -6.0722    0.0000 C   0  0
    5.7148   -7.3093    0.0000 N   0  0
    5.7148   -6.4846    0.0000 C   0  0
    6.4192   -7.7217    0.0000 N   0  0
    8.5737   -7.3093    0.0000 N   0  0
    7.8590   -7.7217    0.0000 N   0  0
    9.2885   -7.7217    0.0000 C   0  0
    9.2885   -8.5464    0.0000 C   0  0
    8.5737   -8.9587    0.0000 C   0  0
   10.0033   -8.9587    0.0000 C   0  0
    6.4192   -5.2475    0.0000 O   0  0
    9.2885  -10.1958    0.0000 C   0  0
   10.0067   -9.7800    0.0000 C   0  0
    8.5737   -9.7834    0.0000 C   0  0
    5.0000   -6.0722    0.0000 C   0  0
    9.2920  -11.0205    0.0000 O   0  0
   10.0033   -7.3093    0.0000 C   0  0
   10.0067  -11.4294    0.0000 C   0  0
  2  1  1  0
  3  1  2  0
  4  5  2  0
  5  3  1  0
  6  2  2  0
  7  8  1  0
  8  2  1  0
  9  7  2  0
 10  9  1  0
 11 10  2  0
 12 10  1  0
 13  3  1  0
 14 15  1  0
 15 12  2  0
 16 11  1  0
 17  5  1  0
 18 14  1  0
 19  9  1  0
 20 18  1  0
  6  4  1  0
 14 16  2  0
M  END
> <COMPOUND_ID>
DNDI1417073

$$$$

  SciTegic04051205032D

 19 20  0  0  0  0            999 V2000
    7.9345   -7.9166    0.0000 C   0  0
    7.9345   -8.7390    0.0000 C   0  0
    8.6675   -7.4927    0.0000 S   0  0
    7.2398   -7.4927    0.0000 C   0  0
    8.6113   -9.1809    0.0000 C   0  0
    7.2398   -9.1655    0.0000 C   0  0
    6.4992   -7.9166    0.0000 C   0  0
    8.6828   -6.6524    0.0000 C   0  0
    6.4992   -8.7390    0.0000 C   0  0
   10.0211   -9.2549    0.0000 N   0  0
    9.3545   -8.8028    0.0000 C   0  0
    5.7764   -7.5208    0.0000 O   0  0
    8.0060   -6.2463    0.0000 C   0  0
    9.3800   -6.2566    0.0000 C   0  0
    5.0000   -7.9269    0.0000 C   0  0
    9.3545   -8.0086    0.0000 C   0  0
    9.3903   -5.4163    0.0000 C   0  0
    7.9983   -5.4061    0.0000 C   0  0
    8.7288   -5.0000    0.0000 C   0  0
  2  1  2  0
  3  1  1  0
  4  1  1  0
  5  2  1  0
  6  2  1  0
  7  4  2  0
  8  3  1  0
  9  7  1  0
 10 11  1  0
 11  5  1  0
 12  7  1  0
 13  8  1  0
 14  8  2  0
 15 12  1  0
 16 11  1  0
 17 14  1  0
 18 13  2  0
 19 17  2  0
  9  6  2  0
 19 18  1  0
M  END
> <COMPOUND_ID>
DNDI1417074

$$$$

  SciTegic04051205032D

 20 22  0  0  0  0            999 V2000
    7.9392   -7.8679    0.0000 C   0  0
    8.3112   -7.1318    0.0000 C   0  0
    8.3825   -8.5540    0.0000 C   0  0
    7.1451   -8.0764    0.0000 C   0  0
    9.1397   -7.0738    0.0000 C   0  0
    7.8574   -9.1951    0.0000 O   0  0
    7.1002   -8.8811    0.0000 C   0  0
    9.5118   -6.3165    0.0000 C   0  0
    9.5830   -7.7967    0.0000 C   0  0
    9.1977   -8.5196    0.0000 C   0  0
    6.4590   -7.6331    0.0000 C   0  0
    7.8574   -6.4326    0.0000 O   0  0
   10.3402   -6.2585    0.0000 O   0  0
    6.3667   -9.2531    0.0000 C   0  0
    5.7229   -8.0078    0.0000 C   0  0
    9.0447   -5.6279    0.0000 O   0  0
    5.6781   -8.7993    0.0000 C   0  0
    5.0000   -7.5750    0.0000 O   0  0
    8.2189   -5.6886    0.0000 C   0  0
    7.7625   -5.0000    0.0000 C   0  0
  2  1  1  0
  3  1  2  0
  4  1  1  0
  5  2  1  0
  6  3  1  0
  7  4  1  0
  8  5  1  0
  9  5  1  0
 10  3  1  0
 11  4  2  0
 12  2  2  0
 13  8  2  0
 14  7  2  0
 15 11  1  0
 16  8  1  0
 17 15  2  0
 18 15  1  0
 19 16  1  0
 20 19  1  0
  9 10  1  0
  6  7  1  0
 17 14  1  0
M  END
> <COMPOUND_ID>
DNDI1417075

$$$$

  SciTegic04051205032D

 20 21  0  0  0  0            999 V2000
    7.1906   -7.1616    0.0000 C   0  0
    8.0212   -7.1616    0.0000 N   0  0
    6.7685   -6.4537    0.0000 C   0  0
    6.7931   -7.8940    0.0000 C   0  0
    9.2405   -6.4537    0.0000 C   0  0
    8.4142   -6.4537    0.0000 N   0  0
    5.5605   -7.1973    0.0000 C   0  0
    5.9557   -6.4694    0.0000 C   0  0
    5.9848   -7.9141    0.0000 C   0  0
    9.6535   -7.1661    0.0000 C   0  0
    9.6535   -5.7414    0.0000 C   0  0
    7.1615   -5.7280    0.0000 O   0  0
    7.2442   -8.6019    0.0000 O   0  0
   10.4664   -7.1661    0.0000 C   0  0
   10.4664   -5.7280    0.0000 C   0  0
   10.8862   -6.4537    0.0000 C   0  0
    9.2226   -7.8784    0.0000 O   0  0
    5.3015   -6.4336    0.0000 C   0  0
    5.0000   -7.8181    0.0000 C   0  0
   10.8862   -5.0000    0.0000 C   0  0
  2  1  2  0
  3  1  1  0
  4  1  1  0
  5  6  1  0
  6  2  1  0
  7  8  1  0
  8  3  1  0
  9  4  1  0
 10  5  2  0
 11  5  1  0
 12  3  2  0
 13  4  2  0
 14 10  1  0
 15 11  2  0
 16 15  1  0
 17 10  1  0
 18  7  1  0
 19  7  1  0
 20 15  1  0
  7  9  1  0
 16 14  2  0
M  END
> <COMPOUND_ID>
DNDI1417076

$$$$

  SciTegic04051205032D

 21 24  0  0  0  0            999 V2000
    7.1774   -8.3153    0.0000 C   0  0
    7.1774   -9.9483    0.0000 N   0  0
    7.8839   -8.7091    0.0000 C   0  0
    6.4564   -8.7091    0.0000 C   0  0
    7.1774   -7.4814    0.0000 N   0  0
    6.4564   -9.5343    0.0000 C   0  0
    7.8839   -9.5343    0.0000 C   0  0
    6.4593   -6.2653    0.0000 C   0  0
    5.7991   -5.7991    0.0000 O   0  0
    7.1282   -5.7731    0.0000 C   0  0
    6.0655   -5.0000    0.0000 C   0  0
    6.8502   -5.0000    0.0000 C   0  0
    6.4593   -7.0760    0.0000 C   0  0
    8.6135   -8.3153    0.0000 C   0  0
    5.7267   -8.3153    0.0000 C   0  0
    8.6135   -9.9483    0.0000 C   0  0
    5.7267   -9.9483    0.0000 C   0  0
    5.0000   -8.7091    0.0000 C   0  0
    9.3403   -8.7091    0.0000 C   0  0
    5.0000   -9.5343    0.0000 C   0  0
    9.3403   -9.5343    0.0000 C   0  0
  2  6  1  0
  3  1  2  0
  4  1  1  0
  5  1  1  0
  6  4  2  0
  7  3  1  0
  8 13  1  0
  9  8  1  0
 10  8  2  0
 11  9  1  0
 12 10  1  0
 13  5  1  0
 14  3  1  0
 15  4  1  0
 16  7  1  0
 17  6  1  0
 18 15  2  0
 19 14  2  0
 20 18  1  0
 21 19  1  0
  7  2  2  0
 20 17  2  0
 16 21  2  0
 12 11  2  0
M  END
> <COMPOUND_ID>
DNDI1417077

$$$$

  SciTegic04051205032D

 19 20  0  0  0  0            999 V2000
    7.1258   -6.6353    0.0000 C   0  0
    8.6202   -6.5853    0.0000 N   0  0
   10.0375   -6.5853    0.0000 C   0  0
    9.3289   -6.1856    0.0000 C   0  0
   10.7461   -6.1856    0.0000 C   0  0
    6.4172   -6.2174    0.0000 C   0  0
   11.4865   -6.5126    0.0000 S   0  0
    7.9116   -6.1856    0.0000 O   0  0
   12.0316   -5.9130    0.0000 C   0  0
   10.8188   -5.3679    0.0000 C   0  0
    7.1122   -7.5256    0.0000 O   0  0
   11.6319   -5.2044    0.0000 C   0  0
    5.7086   -6.6353    0.0000 C   0  0
    9.3289   -5.3679    0.0000 N   0  0
    6.4172   -5.3998    0.0000 C   0  0
    5.7086   -7.4529    0.0000 C   0  0
    5.0000   -6.2038    0.0000 C   0  0
    5.7222   -5.0000    0.0000 C   0  0
    5.0000   -5.3861    0.0000 C   0  0
  2  8  1  0
  3  4  1  0
  4  2  2  0
  5  3  1  0
  6  1  1  0
  7  5  1  0
  8  1  1  0
  9  7  1  0
 10  5  2  0
 11  1  2  0
 12 10  1  0
 13  6  1  0
 14  4  1  0
 15  6  2  0
 16 13  1  0
 17 13  2  0
 18 15  1  0
 19 18  2  0
 19 17  1  0
  9 12  2  0
M  END
> <COMPOUND_ID>
DNDI1417078

$$$$

  SciTegic04051205032D

 20 22  0  0  0  0            999 V2000
    8.7888   -6.9520    0.0000 N   0  3
    7.3804   -6.5552    0.0000 C   0  0
    6.5751   -6.7615    0.0000 C   0  0
    5.7776   -6.9758    0.0000 C   0  0
    5.0000   -6.7615    0.0000 C   0  0
    5.1944   -7.5471    0.0000 C   0  0
    9.3799   -7.5471    0.0000 C   0  0
    9.3799   -6.3807    0.0000 C   0  0
    8.1937   -6.3450    0.0000 C   0  0
    8.1937   -7.5471    0.0000 C   0  0
   10.1774   -7.3328    0.0000 C   0  0
    9.1459   -8.3445    0.0000 C   0  0
   10.1893   -6.5711    0.0000 C   0  0
    9.1776   -5.6030    0.0000 C   0  0
    9.7410   -8.9158    0.0000 C   0  0
   10.7606   -5.9998    0.0000 C   0  0
    9.7608   -5.0000    0.0000 C   0  0
   10.7646   -7.9279    0.0000 C   0  0
   10.5384   -8.7095    0.0000 C   0  0
   10.5384   -5.2024    0.0000 C   0  0
  2  9  1  0
  3  2  3  0
  4  3  1  0
  5  4  1  0
  6  4  1  0
  7  1  1  0
  8  1  1  0
  9  1  1  0
 10  1  1  0
 11  7  1  0
 12  7  1  0
 13  8  1  0
 14  8  1  0
 15 12  1  0
 16 13  1  0
 17 14  1  0
 18 11  1  0
 19 15  1  0
 20 17  1  0
 16 20  1  0
 18 19  1  0
  6  5  1  0
M  CHG  1   1   1
M  END
> <COMPOUND_ID>
DNDI1417079

$$$$

  SciTegic04051205032D

 21 24  0  0  0  0            999 V2000
    7.6963   -6.7740    0.0000 C   0  0
    8.5271   -6.7350    0.0000 C   0  0
    7.2194   -6.1082    0.0000 C   0  0
    7.2194   -7.4519    0.0000 C   0  0
    9.1179   -7.3229    0.0000 N   0  0
    8.9110   -6.0002    0.0000 C   0  0
    6.4396   -6.3691    0.0000 C   0  0
    6.4396   -7.1849    0.0000 C   0  0
    9.7208   -6.1382    0.0000 C   0  0
    9.8408   -6.9360    0.0000 C   0  0
    7.4924   -5.3134    0.0000 O   0  0
    7.4924   -8.2257    0.0000 O   0  0
    8.5421   -5.2475    0.0000 O   0  0
   10.3626   -5.6283    0.0000 C   0  0
    5.7258   -5.9432    0.0000 C   0  0
    5.7258   -7.5959    0.0000 C   0  0
   10.6116   -7.2479    0.0000 C   0  0
   11.1184   -5.9313    0.0000 C   0  0
    5.0000   -6.3691    0.0000 C   0  0
    5.0000   -7.1849    0.0000 C   0  0
   11.2534   -6.7350    0.0000 C   0  0
  2  1  2  0
  3  1  1  0
  4  1  1  0
  5  2  1  0
  6  2  1  0
  7  3  1  0
  8  4  1  0
  9  6  1  0
 10  5  1  0
 11  3  2  0
 12  4  2  0
 13  6  2  0
 14  9  1  0
 15  7  1  0
 16  8  1  0
 17 10  1  0
 18 14  2  0
 19 15  2  0
 20 16  2  0
 21 17  2  0
  8  7  2  0
 10  9  2  0
 20 19  1  0
 21 18  1  0
M  END
> <COMPOUND_ID>
DNDI1417080

$$$$

  SciTegic04051205032D

 21 24  0  0  0  0            999 V2000
    6.2972   -7.3744    0.0000 N   0  0
    5.0000   -7.1619    0.0000 N   0  0
    5.5899   -7.7445    0.0000 C   0  0
    7.0117   -8.5799    0.0000 C   0  0
    7.7262   -9.8148    0.0000 C   0  0
    7.0117   -7.7702    0.0000 C   0  0
    6.2312   -6.5610    0.0000 C   0  0
    7.7262   -9.0087    0.0000 C   0  0
    5.4140   -6.4071    0.0000 C   0  0
    8.4371  -10.2325    0.0000 N   0  0
    7.0117  -10.2325    0.0000 C   0  0
    6.2972   -9.0087    0.0000 C   0  0
    6.2972   -9.8148    0.0000 C   0  0
    7.0117  -11.0680    0.0000 O   0  0
    8.4371   -8.5799    0.0000 C   0  0
    6.7771   -5.9417    0.0000 C   0  0
    9.1516   -9.8148    0.0000 C   0  0
    5.1429   -5.6156    0.0000 C   0  0
    9.1516   -9.0087    0.0000 C   0  0
    6.5023   -5.1539    0.0000 C   0  0
    5.6925   -5.0000    0.0000 C   0  0
  2  3  2  0
  3  1  1  0
  4  6  1  0
  5  8  1  0
  6  1  1  0
  7  1  1  0
  8  4  1  0
  9  7  2  0
 10  5  2  0
 11 13  2  0
 12  4  2  0
 13 12  1  0
 14 11  1  0
 15  8  2  0
 16  7  1  0
 17 19  2  0
 18  9  1  0
 19 15  1  0
 20 16  2  0
 21 20  1  0
  2  9  1  0
 21 18  2  0
  5 11  1  0
 10 17  1  0
M  END
> <COMPOUND_ID>
DNDI1417081

$$$$

  SciTegic04051205032D

 21 23  0  0  0  0            999 V2000
    7.0132   -7.4476    0.0000 C   0  0
    7.8888   -7.6559    0.0000 N   0  0
    8.5270   -6.9975    0.0000 N   0  0
    6.2899   -8.0455    0.0000 C   0  0
    6.9012   -6.6325    0.0000 C   0  0
    9.2391   -7.4207    0.0000 C   0  0
    9.2167   -8.2471    0.0000 N   0  0
    7.5618   -6.1376    0.0000 N   0  0
    6.5048   -8.7778    0.0000 N   0  0
    9.9243   -8.6770    0.0000 C   0  0
    7.4521   -5.3180    0.0000 C   0  0
    5.9786   -9.3421    0.0000 C   0  0
    9.9579   -7.0222    0.0000 C   0  0
    5.5307   -7.8686    0.0000 C   0  0
    6.1331   -6.3235    0.0000 C   0  0
    6.6795   -5.0000    0.0000 C   0  0
    5.2150   -9.1674    0.0000 C   0  0
   10.6566   -8.2672    0.0000 C   0  0
   10.6633   -7.4409    0.0000 C   0  0
    6.0257   -5.5061    0.0000 C   0  0
    5.0000   -8.4262    0.0000 C   0  0
  2  1  2  0
  3  2  1  0
  4  1  1  0
  5  1  1  0
  6  3  1  0
  7  6  2  0
  8  5  2  0
  9  4  2  0
 10  7  1  0
 11  8  1  0
 12  9  1  0
 13  6  1  0
 14  4  1  0
 15  5  1  0
 16 11  2  0
 17 12  2  0
 18 10  2  0
 19 13  2  0
 20 15  2  0
 21 14  2  0
 16 20  1  0
 17 21  1  0
 18 19  1  0
M  END
> <COMPOUND_ID>
DNDI1417082

$$$$

  SciTegic04051205032D

 19 20  0  0  0  0            999 V2000
   10.3651   -6.1850    0.0000 C   0  0
    9.6568   -6.5846    0.0000 N   0  0
    8.1631   -6.6345    0.0000 C   0  0
   11.0734   -6.5846    0.0000 C   0  0
    8.9485   -6.1850    0.0000 O   0  0
    7.4548   -6.2168    0.0000 C   0  0
    6.7466   -6.6345    0.0000 C   0  0
    8.1495   -7.5244    0.0000 O   0  0
   12.4809   -6.5846    0.0000 N   0  0
   10.3651   -5.3678    0.0000 N   0  0
    6.0383   -6.2032    0.0000 C   0  0
   11.7817   -6.1850    0.0000 C   0  0
    5.3300   -6.6209    0.0000 Cl  0  0
   11.0734   -7.4018    0.0000 C   0  0
    7.4548   -5.3996    0.0000 C   0  0
    6.7602   -5.0000    0.0000 C   0  0
   12.4899   -7.4018    0.0000 C   0  0
    6.0383   -5.3860    0.0000 C   0  0
   11.7817   -7.8195    0.0000 C   0  0
  2  1  2  0
  3  5  1  0
  4  1  1  0
  5  2  1  0
  6  3  1  0
  7  6  1  0
  8  3  2  0
  9 12  1  0
 10  1  1  0
 11  7  2  0
 12  4  2  0
 13 11  1  0
 14  4  1  0
 15  6  2  0
 16 15  1  0
 17 19  1  0
 18 16  2  0
 19 14  2  0
  9 17  2  0
 11 18  1  0
M  END
> <COMPOUND_ID>
DNDI1417083

$$$$

  SciTegic04051205032D

 20 21  0  0  0  0            999 V2000
    6.4660   -6.4793    0.0000 C   0  0
    7.2948   -6.4793    0.0000 C   0  0
    5.9062   -7.0923    0.0000 N   0  0
    5.1650   -6.7452    0.0000 O   0  0
    6.0532   -5.7662    0.0000 C   0  0
    5.2494   -5.9445    0.0000 N   0  0
    9.7905   -7.9274    0.0000 C   0  0
    8.5521   -7.1955    0.0000 N   0  0
    7.7076   -7.1955    0.0000 N   0  0
   10.2034   -8.6404    0.0000 C   0  0
    7.7076   -5.7662    0.0000 O   0  0
   10.2096   -7.2205    0.0000 C   0  0
    8.9649   -7.9180    0.0000 C   0  0
   11.0290   -8.6466    0.0000 C   0  0
   11.0353   -7.2299    0.0000 C   0  0
   11.4575   -7.9430    0.0000 C   0  0
    9.7905   -9.3441    0.0000 O   0  0
    6.3816   -5.0000    0.0000 C   0  0
   11.4481   -6.5168    0.0000 O   0  0
   12.2675   -6.5168    0.0000 C   0  0
  2  1  1  0
  3  1  2  0
  4  3  1  0
  5  1  1  0
  6  5  2  0
  7 13  1  0
  8  9  1  0
  9  2  1  0
 10  7  2  0
 11  2  2  0
 12  7  1  0
 13  8  2  0
 14 10  1  0
 15 12  2  0
 16 15  1  0
 17 10  1  0
 18  5  1  0
 19 15  1  0
 20 19  1  0
  4  6  1  0
 14 16  2  0
M  END
> <COMPOUND_ID>
DNDI1417084

$$$$

  SciTegic04051205032D

 19 20  0  0  0  0            999 V2000
    6.9975   -6.5141    0.0000 C   0  0
    6.2893   -6.1009    0.0000 C   0  0
    8.4865   -6.4822    0.0000 N   0  0
    9.1811   -6.0646    0.0000 C   0  0
    7.7783   -6.0646    0.0000 O   0  0
    5.5312   -6.4278    0.0000 S   0  0
    9.8893   -6.4686    0.0000 C   0  0
    6.9975   -7.4084    0.0000 O   0  0
    6.2121   -5.2837    0.0000 C   0  0
    5.0000   -5.8059    0.0000 C   0  0
    5.4176   -5.0977    0.0000 C   0  0
   10.5975   -6.0646    0.0000 C   0  0
    9.8893   -7.2767    0.0000 C   0  0
    9.1811   -5.2475    0.0000 N   0  0
   11.3057   -7.2767    0.0000 C   0  0
   11.3057   -6.4686    0.0000 C   0  0
   10.5975   -7.6853    0.0000 C   0  0
   12.0139   -7.6853    0.0000 O   0  0
   12.7221   -7.2767    0.0000 C   0  0
  2  1  1  0
  3  5  1  0
  4  3  2  0
  5  1  1  0
  6  2  1  0
  7  4  1  0
  8  1  2  0
  9  2  2  0
 10  6  1  0
 11  9  1  0
 12  7  2  0
 13  7  1  0
 14  4  1  0
 15 17  1  0
 16 12  1  0
 17 13  2  0
 18 15  1  0
 19 18  1  0
 11 10  2  0
 15 16  2  0
M  END
> <COMPOUND_ID>
DNDI1417085

$$$$

  SciTegic04051205032D

 21 23  0  0  0  0            999 V2000
    7.8423   -6.5885    0.0000 C   0  0
    9.2565   -6.3382    0.0000 C   0  0
    8.4797   -6.0620    0.0000 C   0  0
    9.8892   -5.8070    0.0000 C   0  0
    7.0632   -6.2981    0.0000 C   0  0
    8.3310   -5.2475    0.0000 O   0  0
   12.2241   -6.6451    0.0000 N   0  0
    5.1650   -7.8917    0.0000 N   0  0
   10.6659   -6.0856    0.0000 C   0  0
    6.4328   -6.8364    0.0000 C   0  0
    9.3981   -7.1551    0.0000 C   0  0
    7.9886   -7.4030    0.0000 C   0  0
    8.7843   -7.6155    0.0000 C   0  0
   12.0707   -5.8235    0.0000 C   0  0
    5.0163   -7.0772    0.0000 C   0  0
   11.5891   -7.1763    0.0000 C   0  0
    5.9488   -8.1821    0.0000 C   0  0
   10.8100   -6.9001    0.0000 C   0  0
   11.2916   -5.5473    0.0000 C   0  0
    5.6584   -6.5507    0.0000 C   0  0
    6.5745   -7.6509    0.0000 C   0  0
  2  3  1  0
  3  1  1  0
  4  2  2  0
  5  1  2  0
  6  3  2  0
  7 14  1  0
  8 17  1  0
  9  4  1  0
 10  5  1  0
 11 13  1  0
 12  1  1  0
 13 12  1  0
 14 19  2  0
 15 20  1  0
 16 18  1  0
 17 21  2  0
 18  9  2  0
 19  9  1  0
 20 10  2  0
 21 10  1  0
 11  2  1  0
 15  8  2  0
 16  7  2  0
M  END
> <COMPOUND_ID>
DNDI1417086

$$$$

  SciTegic04051205032D

 20 21  0  0  0  0            999 V2000
   11.4044   -5.9499    0.0000 N   0  0
    7.1475   -9.7904    0.0000 C   0  0
    7.4006   -9.0092    0.0000 C   0  0
   13.0184   -5.5988    0.0000 N   0  0
    6.3419   -9.9673    0.0000 C   0  0
    6.8508   -8.3941    0.0000 C   0  0
    5.8030   -9.3494    0.0000 C   0  0
    6.0479   -8.5547    0.0000 C   0  0
    8.2117   -8.8350    0.0000 O   0  0
   10.5906   -6.1268    0.0000 C   0  0
   11.6575   -5.1742    0.0000 C   0  0
   11.9597   -6.5596    0.0000 C   0  0
   12.4632   -5.0000    0.0000 C   0  0
   12.7571   -6.3908    0.0000 C   0  0
    7.6973  -10.4082    0.0000 C   0  0
    5.0000   -9.5481    0.0000 C   0  0
    8.4675   -8.0402    0.0000 C   0  0
   10.3374   -6.9107    0.0000 C   0  0
    9.2705   -7.8797    0.0000 C   0  0
    9.5318   -7.0876    0.0000 C   0  0
  2  3  2  0
  3  9  1  0
  4 13  1  0
  5  2  1  0
  6  3  1  0
  7  8  1  0
  8  6  2  0
  9 17  1  0
 10  1  1  0
 11  1  1  0
 12  1  1  0
 13 11  1  0
 14 12  1  0
 15  2  1  0
 16  7  1  0
 17 19  1  0
 18 10  1  0
 19 20  1  0
 20 18  1  0
  4 14  1  0
  7  5  2  0
M  END
> <COMPOUND_ID>
DNDI1417087

$$$$

  SciTegic04051205032D

 20 20  0  0  0  0            999 V2000
    5.7154   -5.7153    0.0000 C   0  0
    6.4308   -6.1327    0.0000 C   0  0
    7.1324   -5.7291    0.0000 C   0  0
    6.4308   -6.9581    0.0000 C   0  0
   10.7001  -11.9107    0.0000 N   0  0
    7.8478   -6.1327    0.0000 C   0  0
    7.1324   -7.3800    0.0000 C   0  0
    9.2785   -9.4482    0.0000 N   0  0
    7.8478   -6.9581    0.0000 C   0  0
    9.9939  -10.6817    0.0000 C   0  0
    6.1327   -5.0000    0.0000 C   0  0
    5.2935   -6.4307    0.0000 C   0  0
    5.0000   -5.2935    0.0000 C   0  0
   10.7093  -11.0991    0.0000 C   0  0
    9.9939   -9.8563    0.0000 C   0  0
    9.2785   -8.6228    0.0000 C   0  0
    9.9939  -12.3326    0.0000 C   0  0
   11.4155  -12.3326    0.0000 C   0  0
    8.5769   -7.3800    0.0000 C   0  0
    8.5769   -8.2054    0.0000 C   0  0
  2  1  1  0
  3  2  2  0
  4  2  1  0
  5 14  1  0
  6  3  1  0
  7  4  2  0
  8 16  1  0
  9  7  1  0
 10 15  1  0
 11  1  1  0
 12  1  1  0
 13  1  1  0
 14 10  1  0
 15  8  1  0
 16 20  1  0
 17  5  1  0
 18  5  1  0
 19  9  1  0
 20 19  1  0
  9  6  2  0
M  END
> <COMPOUND_ID>
DNDI1417088

$$$$

  SciTegic04051205032D

 21 24  0  0  0  0            999 V2000
    6.4238   -7.8268    0.0000 C   0  0
    5.7077   -8.2372    0.0000 C   0  0
    6.2479   -7.0227    0.0000 C   0  0
    7.1399   -8.2288    0.0000 C   0  0
    5.4313   -6.9348    0.0000 N   0  0
    7.1399   -9.0580    0.0000 C   0  0
    5.7161   -9.0580    0.0000 C   0  0
    5.1005   -7.6886    0.0000 C   0  0
    6.4280   -9.4726    0.0000 C   0  0
    6.8007   -6.4071    0.0000 C   0  0
    7.8560   -9.4684    0.0000 N   0  0
    6.4364  -10.3018    0.0000 N   0  0
    7.6132   -6.5704    0.0000 O   0  0
    6.5453   -5.6156    0.0000 O   0  0
    7.8519   -7.8226    0.0000 C   0  0
    5.0000   -9.4726    0.0000 C   0  0
    8.5680   -9.0538    0.0000 C   0  0
    5.7161  -10.7164    0.0000 C   0  0
    7.0981   -5.0000    0.0000 C   0  0
    8.5596   -8.2288    0.0000 C   0  0
    5.0000  -10.3018    0.0000 C   0  0
  2  1  1  0
  3  1  2  0
  4  1  1  0
  5  3  1  0
  6  4  2  0
  7  2  1  0
  8  2  2  0
  9  6  1  0
 10  3  1  0
 11  6  1  0
 12  9  1  0
 13 10  2  0
 14 10  1  0
 15  4  1  0
 16  7  1  0
 17 20  1  0
 18 12  2  0
 19 14  1  0
 20 15  2  0
 21 16  2  0
  5  8  1  0
  9  7  2  0
 17 11  2  0
 18 21  1  0
M  END
> <COMPOUND_ID>
DNDI1417089

$$$$

  SciTegic04051205032D

 21 23  0  0  0  0            999 V2000
    6.4258   -9.9359    0.0000 C   0  0
    6.4258  -10.7655    0.0000 C   0  0
    5.7087   -8.7020    0.0000 N   0  0
    6.4216   -8.2850    0.0000 N   0  0
    5.7087   -9.5232    0.0000 C   0  0
    7.1386  -11.1741    0.0000 N   0  0
    7.1261   -6.2340    0.0000 C   0  0
    5.7087  -11.1741    0.0000 C   0  0
    6.4216   -5.8212    0.0000 C   0  0
    7.1386   -7.0636    0.0000 C   0  0
    6.4216   -7.4721    0.0000 C   0  0
    5.0000   -9.9359    0.0000 C   0  0
    5.0000  -10.7655    0.0000 C   0  0
    5.7004   -6.2382    0.0000 C   0  0
    5.7087   -7.0636    0.0000 C   0  0
    5.7212  -12.0037    0.0000 O   0  0
    7.1386   -9.5232    0.0000 C   0  0
    7.8598  -10.7530    0.0000 C   0  0
    7.8515   -5.8212    0.0000 C   0  0
    6.4090   -5.0000    0.0000 C   0  0
    7.8515   -9.9234    0.0000 C   0  0
  2  1  1  0
  3  5  1  0
  4  3  2  0
  5  1  2  0
  6  2  1  0
  7 10  1  0
  8  2  2  0
  9 14  1  0
 10 11  2  0
 11  4  1  0
 12  5  1  0
 13 12  2  0
 14 15  2  0
 15 11  1  0
 16  8  1  0
 17  1  1  0
 18 21  1  0
 19  7  1  0
 20  9  1  0
 21 17  2  0
 18  6  2  0
  8 13  1  0
  9  7  2  0
M  END
> <COMPOUND_ID>
DNDI1417090

$$$$

  SciTegic04051205032D

 21 23  0  0  0  0            999 V2000
    7.8512   -6.7094    0.0000 N   0  3
    9.2992   -6.6893    0.0000 C   0  0
    8.5685   -6.2871    0.0000 C   0  0
   10.0165   -6.2469    0.0000 C   0  0
    7.1339   -6.2871    0.0000 C   0  0
   10.7383   -6.6513    0.0000 N   0  0
    7.1339   -5.4737    0.0000 C   0  0
    6.4368   -6.7094    0.0000 C   0  0
   11.4511   -6.2134    0.0000 C   0  0
    9.9875   -5.4223    0.0000 C   0  0
    8.5685   -5.4737    0.0000 C   0  0
    6.4368   -5.0536    0.0000 C   0  0
    7.8378   -5.0536    0.0000 C   0  0
   11.4243   -5.3888    0.0000 C   0  0
   10.6936   -5.0000    0.0000 C   0  0
    7.8378   -7.5273    0.0000 C   0  0
    5.7128   -6.2871    0.0000 C   0  0
    5.7128   -5.4737    0.0000 C   0  0
   10.7673   -7.4669    0.0000 C   0  0
    5.0000   -5.0760    0.0000 C   0  0
    7.1406   -7.9429    0.0000 C   0  0
  2  3  1  0
  3  1  2  0
  4  2  2  0
  5  1  1  0
  6  4  1  0
  7  5  1  0
  8  5  2  0
  9  6  1  0
 10  4  1  0
 11  3  1  0
 12  7  2  0
 13 11  2  0
 14 15  1  0
 15 10  2  0
 16  1  1  0
 17  8  1  0
 18 17  2  0
 19  6  1  0
 20 18  1  0
 21 16  1  0
 13  7  1  0
 18 12  1  0
 14  9  2  0
M  CHG  1   1   1
M  END
> <COMPOUND_ID>
DNDI1417091

$$$$

  SciTegic04051205032D

 21 23  0  0  0  0            999 V2000
    8.5808   -6.6877    0.0000 N   0  0
    7.8575   -6.2792    0.0000 C   0  0
    7.1275   -6.6676    0.0000 C   0  0
    5.6943   -6.6475    0.0000 N   0  3
    9.2974   -6.2792    0.0000 C   0  0
    9.2974   -5.4554    0.0000 C   0  0
    6.4109   -6.2591    0.0000 C   0  0
    7.8575   -5.4554    0.0000 C   0  0
    8.5808   -5.0402    0.0000 C   0  0
   10.0073   -6.6877    0.0000 C   0  0
   10.0073   -5.0402    0.0000 C   0  0
   10.7284   -6.2792    0.0000 C   0  0
    8.5808   -7.5048    0.0000 C   0  0
   10.7284   -5.4554    0.0000 C   0  0
    5.6876   -7.4780    0.0000 C   0  0
    5.0000   -6.2189    0.0000 C   0  0
    6.4444   -5.4286    0.0000 C   0  0
   11.4606   -5.0603    0.0000 C   0  0
    6.3908   -7.8999    0.0000 C   0  0
    5.0156   -5.4018    0.0000 C   0  0
    5.7345   -5.0000    0.0000 C   0  0
  2  1  1  0
  3  2  2  0
  4  7  2  0
  5  1  1  0
  6  5  2  0
  7  3  1  0
  8  2  1  0
  9  8  2  0
 10  5  1  0
 11  6  1  0
 12 10  2  0
 13  1  1  0
 14 12  1  0
 15  4  1  0
 16  4  1  0
 17  7  1  0
 18 14  1  0
 19 15  1  0
 20 21  1  0
 21 17  2  0
  9  6  1  0
 14 11  2  0
 20 16  2  0
M  CHG  1   4   1
M  END
> <COMPOUND_ID>
DNDI1417092

$$$$

  SciTegic04051205032D

 21 23  0  0  0  0            999 V2000
    7.8365   -7.4848    0.0000 N   0  3
    7.1274   -7.0763    0.0000 C   0  0
    8.5400   -7.0763    0.0000 C   0  0
    9.2831   -7.5131    0.0000 C   0  0
   11.4332   -6.2594    0.0000 N   0  0
    7.1274   -6.2594    0.0000 C   0  0
   10.0149   -7.0763    0.0000 C   0  0
   10.7184   -5.8509    0.0000 C   0  0
   11.4332   -7.0763    0.0000 C   0  0
   10.0149   -6.2594    0.0000 C   0  0
   10.7184   -7.4848    0.0000 C   0  0
    6.4239   -7.4848    0.0000 C   0  0
    8.5400   -6.2594    0.0000 C   0  0
    6.4239   -5.8509    0.0000 C   0  0
    7.8365   -5.8509    0.0000 C   0  0
    7.8365   -8.3300    0.0000 C   0  0
    5.7148   -7.0763    0.0000 C   0  0
    5.7148   -6.2594    0.0000 C   0  0
   12.1651   -5.8509    0.0000 C   0  0
    5.0000   -5.8169    0.0000 C   0  0
   12.1934   -5.0000    0.0000 C   0  0
  2  1  1  0
  3  1  2  0
  4  3  1  0
  5  9  1  0
  6  2  2  0
  7  4  2  0
  8 10  2  0
  9 11  2  0
 10  7  1  0
 11  7  1  0
 12  2  1  0
 13  3  1  0
 14  6  1  0
 15 13  2  0
 16  1  1  0
 17 12  2  0
 18 17  1  0
 19  5  1  0
 20 18  1  0
 21 19  1  0
 15  6  1  0
 18 14  2  0
  5  8  1  0
M  CHG  1   1   1
M  END
> <COMPOUND_ID>
DNDI1417093

$$$$

  SciTegic04051205032D

 19 21  0  0  0  0            999 V2000
    7.2336   -6.4839    0.0000 N   0  0
    7.6902   -5.8326    0.0000 C   0  0
    8.1288   -7.7999    0.0000 C   0  0
    7.2001   -5.1566    0.0000 O   0  0
    7.5044   -7.2627    0.0000 C   0  0
    6.4212   -6.2533    0.0000 C   0  0
    6.4212   -5.4029    0.0000 C   0  0
    8.5228   -5.7968    0.0000 O   0  0
    7.9744   -8.5989    0.0000 C   0  0
    8.9032   -7.5201    0.0000 C   0  0
    7.2001   -8.8741    0.0000 F   0  0
    9.0487   -6.7032    0.0000 Cl  0  0
    5.7184   -6.6517    0.0000 C   0  0
    5.7184   -5.0000    0.0000 C   0  0
    9.3844   -8.8629    0.0000 C   0  0
    8.6034   -9.1360    0.0000 C   0  0
    9.5299   -8.0460    0.0000 C   0  0
    5.0000   -6.2533    0.0000 C   0  0
    5.0000   -5.4096    0.0000 C   0  0
  2  1  1  0
  3  5  1  0
  4  2  1  0
  5  1  1  0
  6  1  1  0
  7  6  1  0
  8  2  2  0
  9  3  2  0
 10  3  1  0
 11  9  1  0
 12 10  1  0
 13  6  2  0
 14  7  2  0
 15 17  1  0
 16  9  1  0
 17 10  2  0
 18 13  1  0
 19 18  2  0
  4  7  1  0
 15 16  2  0
 19 14  1  0
M  END
> <COMPOUND_ID>
DNDI1417094

$$$$

  SciTegic04051205032D

 21 23  0  0  0  0            999 V2000
    8.4565   -7.6434    0.0000 N   0  0
    8.4565   -6.8447    0.0000 C   0  0
    7.0797   -7.6558    0.0000 N   0  0
    7.7660   -6.4454    0.0000 C   0  0
    7.0797   -6.8572    0.0000 C   0  0
    9.1512   -8.0427    0.0000 C   0  0
    9.1512   -6.4454    0.0000 C   0  0
    9.1429   -8.8413    0.0000 N   0  0
    9.1429   -5.6468    0.0000 C   0  0
    6.3809   -6.4579    0.0000 C   0  0
    9.8417   -7.6434    0.0000 N   0  0
    8.4441   -5.2475    0.0000 O   0  0
    9.8292   -6.8447    0.0000 C   0  0
    9.8292   -5.2475    0.0000 C   0  0
    6.3809   -5.6468    0.0000 C   0  0
    5.6863   -6.8572    0.0000 C   0  0
   10.5280   -6.4454    0.0000 C   0  0
   10.5280   -5.6468    0.0000 C   0  0
    5.6863   -5.2475    0.0000 C   0  0
    5.0000   -6.4579    0.0000 C   0  0
    5.0000   -5.6593    0.0000 C   0  0
  2  1  1  0
  3  1  1  0
  4  2  2  0
  5  3  2  0
  6  1  1  0
  7  2  1  0
  8  6  2  0
  9  7  1  0
 10  5  1  0
 11  6  1  0
 12  9  1  0
 13  7  2  0
 14  9  2  0
 15 10  1  0
 16 10  2  0
 17 13  1  0
 18 17  2  0
 19 15  2  0
 20 16  1  0
 21 20  2  0
  5  4  1  0
 18 14  1  0
 21 19  1  0
M  END
> <COMPOUND_ID>
DNDI1417095

$$$$

  SciTegic04051205032D

 21 24  0  0  0  0            999 V2000
    7.0971   -7.4752    0.0000 C   0  0
    7.0971   -6.6502    0.0000 N   0  0
    8.5169   -6.6502    0.0000 C   0  0
    6.3133   -7.7261    0.0000 C   0  0
    6.3133   -6.3923    0.0000 N   0  0
    7.8052   -6.2307    0.0000 C   0  0
    7.8052   -7.8878    0.0000 N   0  0
    8.5169   -7.4752    0.0000 N   0  0
    5.8285   -7.0524    0.0000 C   0  0
    9.2353   -6.2410    0.0000 C   0  0
    6.1310   -8.5340    0.0000 C   0  0
    9.9470   -6.6535    0.0000 O   0  0
    7.8052   -5.4125    0.0000 C   0  0
    5.0000   -7.0524    0.0000 C   0  0
    9.2388   -5.4125    0.0000 C   0  0
    8.5272   -5.0000    0.0000 C   0  0
    5.3472   -8.7816    0.0000 C   0  0
    6.7464   -9.0875    0.0000 C   0  0
    6.5745   -9.8886    0.0000 C   0  0
    5.1719   -9.5895    0.0000 C   0  0
    5.7838  -10.1464    0.0000 C   0  0
  2  1  1  0
  3  8  1  0
  4  1  2  0
  5  2  1  0
  6  2  1  0
  7  1  1  0
  8  7  2  0
  9  4  1  0
 10  3  1  0
 11  4  1  0
 12 10  2  0
 13  6  1  0
 14  9  1  0
 15 10  1  0
 16 13  1  0
 17 11  2  0
 18 11  1  0
 19 18  2  0
 20 17  1  0
 21 19  1  0
  9  5  2  0
  3  6  2  0
 16 15  1  0
 21 20  2  0
M  END
> <COMPOUND_ID>
DNDI1417096

$$$$

  SciTegic04051205032D

 19 20  0  0  0  0            999 V2000
    6.4402   -6.0992    0.0000 C   0  0
    7.1506   -6.5045    0.0000 C   0  0
    5.6978   -6.4134    0.0000 C   0  0
    8.6489   -6.4681    0.0000 N   0  0
    9.3594   -6.0673    0.0000 C   0  0
    7.9521   -6.0673    0.0000 O   0  0
    6.3719   -5.2794    0.0000 C   0  0
    5.1650   -5.8123    0.0000 O   0  0
    5.5658   -5.1018    0.0000 C   0  0
   10.0698   -6.4544    0.0000 C   0  0
    7.1506   -7.3971    0.0000 O   0  0
   10.7803   -6.0673    0.0000 C   0  0
   10.0698   -7.2742    0.0000 C   0  0
    9.3594   -5.2475    0.0000 N   0  0
   11.4907   -7.2742    0.0000 C   0  0
   11.4907   -6.4544    0.0000 C   0  0
   10.7803   -7.6931    0.0000 C   0  0
   12.2012   -7.6931    0.0000 Cl  0  0
    5.5112   -7.2149    0.0000 C   0  0
  2  1  1  0
  3  1  2  0
  4  6  1  0
  5  4  2  0
  6  2  1  0
  7  1  1  0
  8  3  1  0
  9  7  2  0
 10  5  1  0
 11  2  2  0
 12 10  2  0
 13 10  1  0
 14  5  1  0
 15 17  1  0
 16 12  1  0
 17 13  2  0
 18 15  1  0
 19  3  1  0
  8  9  1  0
 16 15  2  0
M  END
> <COMPOUND_ID>
DNDI1417097

$$$$

  SciTegic04051205032D

 19 20  0  0  0  0            999 V2000
    9.8846   -7.0281    0.0000 C   0  0
    9.3347   -7.6366    0.0000 O   0  0
   10.7096   -7.1210    0.0000 C   0  0
    9.4618   -6.3131    0.0000 C   0  0
    8.5784   -7.3031    0.0000 C   0  0
    6.4300   -6.0759    0.0000 C   0  0
    7.1450   -7.3031    0.0000 N   0  0
    8.6644   -6.4781    0.0000 C   0  0
    7.8634   -7.7259    0.0000 C   0  0
    7.1450   -6.4781    0.0000 N   0  0
   11.1840   -6.4472    0.0000 C   0  0
    6.4300   -5.2475    0.0000 O   0  0
    5.7150   -6.4781    0.0000 O   0  0
   10.8540   -5.6944    0.0000 Cl  0  0
   11.0431   -7.8703    0.0000 C   0  0
   12.0090   -6.5331    0.0000 C   0  0
    5.0000   -6.0622    0.0000 C   0  0
   11.8681   -7.9528    0.0000 C   0  0
   12.3390   -7.2860    0.0000 C   0  0
  2  1  1  0
  3  1  1  0
  4  1  2  0
  5  2  1  0
  6 10  1  0
  7  9  2  0
  8  4  1  0
  9  5  1  0
 10  7  1  0
 11  3  2  0
 12  6  2  0
 13  6  1  0
 14 11  1  0
 15  3  1  0
 16 11  1  0
 17 13  1  0
 18 15  2  0
 19 18  1  0
  5  8  2  0
 16 19  2  0
M  END
> <COMPOUND_ID>
DNDI1417098

$$$$

  SciTegic04051205032D

 19 21  0  0  0  0            999 V2000
    7.1403   -9.1184    0.0000 C   0  0
    6.4254   -8.7107    0.0000 C   0  0
    7.1403   -7.4635    0.0000 C   0  0
    7.8473   -8.7107    0.0000 C   0  0
    6.4254   -7.8712    0.0000 C   0  0
    7.8473   -7.8952    0.0000 C   0  0
    7.8473   -6.2471    0.0000 N   0  0
    7.1403   -6.6548    0.0000 C   0  0
    5.7127   -9.1184    0.0000 N   0  0
    9.2966   -5.4374    0.0000 O   0  0
    7.1403   -9.9544    0.0000 O   0  0
    8.5839   -9.0910    0.0000 Cl  0  0
    7.8473   -5.4077    0.0000 C   0  0
    8.5565   -6.6548    0.0000 C   0  0
    5.7127   -7.4635    0.0000 C   0  0
    5.0000   -8.7107    0.0000 C   0  0
    8.5565   -5.0000    0.0000 C   0  0
    9.2966   -6.2231    0.0000 C   0  0
    5.0000   -7.8952    0.0000 C   0  0
  2  1  2  0
  3  6  1  0
  4  1  1  0
  5  2  1  0
  6  4  2  0
  7  8  1  0
  8  3  1  0
  9  2  1  0
 10 18  1  0
 11  1  1  0
 12  4  1  0
 13  7  1  0
 14  7  1  0
 15  5  1  0
 16  9  2  0
 17 13  1  0
 18 14  1  0
 19 16  1  0
  3  5  2  0
 15 19  2  0
 17 10  1  0
M  END
> <COMPOUND_ID>
DNDI1417099

$$$$

  SciTegic04051205032D

 19 21  0  0  0  0            999 V2000
    6.4093   -6.4756    0.0000 C   0  0
    7.1139   -6.0676    0.0000 N   0  0
    8.5232   -6.0634    0.0000 C   0  0
    5.7046   -6.0634    0.0000 C   0  0
    9.2362   -6.4632    0.0000 N   0  0
    7.8227   -6.4756    0.0000 O   0  0
    6.4093   -7.2873    0.0000 C   0  0
    5.2926   -6.7681    0.0000 C   0  0
    8.5192   -5.2475    0.0000 O   0  0
    9.2279   -7.2791    0.0000 C   0  0
    9.9325   -7.6829    0.0000 C   0  0
    5.7046   -7.6953    0.0000 C   0  0
    5.0000   -6.4756    0.0000 C   0  0
    9.9284   -8.5029    0.0000 C   0  0
    5.0000   -7.2873    0.0000 C   0  0
   10.6371   -8.9109    0.0000 Cl  0  0
    8.5150   -8.4988    0.0000 C   0  0
    8.5192   -7.6829    0.0000 C   0  0
    9.2155   -8.9109    0.0000 C   0  0
  2  1  2  0
  3  6  1  0
  4  1  1  0
  5  3  1  0
  6  2  1  0
  7  1  1  0
  8  4  1  0
  9  3  2  0
 10  5  1  0
 11 10  1  0
 12  7  1  0
 13  4  1  0
 14 11  2  0
 15 12  1  0
 16 14  1  0
 17 18  1  0
 18 10  2  0
 19 17  2  0
 12  8  1  0
 15 13  1  0
 19 14  1  0
M  END
> <COMPOUND_ID>
DNDI1417100

$$$$

  SciTegic04051205032D

 21 23  0  0  0  0            999 V2000
    6.4254  -10.3516    0.0000 C   0  0
    6.4254  -11.1726    0.0000 C   0  0
    5.7002   -9.1137    0.0000 N   0  0
    6.4129   -8.7011    0.0000 N   0  0
    5.7002   -9.9390    0.0000 C   0  0
    7.1464  -11.5853    0.0000 N   0  0
    5.7127  -11.5895    0.0000 C   0  0
    5.0000  -10.3516    0.0000 C   0  0
    5.0000  -11.1851    0.0000 C   0  0
    6.4129   -7.8841    0.0000 C   0  0
    6.4129   -6.2379    0.0000 C   0  0
    5.7127  -12.4230    0.0000 O   0  0
    7.1339   -7.4715    0.0000 C   0  0
    5.7002   -7.4840    0.0000 C   0  0
    5.6960   -6.6630    0.0000 C   0  0
    7.1339   -6.6505    0.0000 C   0  0
    7.1339   -9.9348    0.0000 C   0  0
    6.4129   -5.4126    0.0000 O   0  0
    7.8509  -11.1726    0.0000 C   0  0
    7.1256   -5.0000    0.0000 C   0  0
    7.8509  -10.3391    0.0000 C   0  0
  2  1  1  0
  3  5  1  0
  4  3  2  0
  5  1  2  0
  6  2  1  0
  7  2  2  0
  8  5  1  0
  9  8  2  0
 10  4  1  0
 11 15  1  0
 12  7  1  0
 13 10  2  0
 14 10  1  0
 15 14  2  0
 16 13  1  0
 17  1  1  0
 18 11  1  0
 19 21  1  0
 20 18  1  0
 21 17  2  0
 19  6  2  0
  7  9  1  0
 11 16  2  0
M  END
> <COMPOUND_ID>
DNDI1417101

$$$$

  SciTegic04051205032D

 20 20  0  0  0  0            999 V2000
    7.0377   -7.7279    0.0000 C   0  0
    7.4702   -7.0335    0.0000 C   0  0
    8.2935   -7.0584    0.0000 N   0  0
    8.7302   -6.3556    0.0000 C   0  0
    7.4327   -8.4557    0.0000 C   0  0
    6.2185   -7.7071    0.0000 C   0  0
    8.3352   -5.6237    0.0000 O   0  0
    8.2561   -8.4764    0.0000 O   0  0
    7.0793   -6.2974    0.0000 C   0  0
    9.5619   -6.3805    0.0000 C   0  0
    5.8193   -6.9794    0.0000 C   0  0
    7.0086   -9.1543    0.0000 O   0  0
    6.2600   -6.2725    0.0000 C   0  0
    5.0000   -6.9544    0.0000 O   0  0
    9.9902   -5.6736    0.0000 C   0  0
    9.9487   -7.1041    0.0000 C   0  0
   10.8095   -5.6986    0.0000 C   0  0
    9.5120   -7.8028    0.0000 C   0  0
   11.2502   -5.0000    0.0000 C   0  0
    9.9029   -8.5305    0.0000 C   0  0
  2  1  1  0
  3  2  1  0
  4  3  1  0
  5  1  1  0
  6  1  2  0
  7  4  2  0
  8  5  2  0
  9  2  2  0
 10  4  1  0
 11  6  1  0
 12  5  1  0
 13 11  2  0
 14 11  1  0
 15 10  1  0
 16 10  1  0
 17 15  1  0
 18 16  1  0
 19 17  1  0
 20 18  1  0
 13  9  1  0
M  END
> <COMPOUND_ID>
DNDI1417102

$$$$

  SciTegic04051205032D

 21 23  0  0  0  0            999 V2000
    7.0255   -6.5731    0.0000 N   0  0
    7.6959   -6.1940    0.0000 C   0  0
    7.7054   -5.4004    0.0000 C   0  0
    8.3901   -6.5731    0.0000 C   0  0
    6.3433   -6.1822    0.0000 C   0  0
    6.3433   -5.4004    0.0000 C   0  0
    9.0700   -6.1940    0.0000 C   0  0
    9.0795   -5.4004    0.0000 N   0  0
    8.3901   -5.0000    0.0000 C   0  0
    8.3972   -7.4757    0.0000 C   0  0
    7.0255   -7.3951    0.0000 C   0  0
    8.3972   -8.2907    0.0000 N   0  0
    9.7783   -6.5944    0.0000 N   0  0
    6.2982   -7.8026    0.0000 C   0  0
    6.2935   -8.6413    0.0000 N   0  0
    5.6728   -6.5518    0.0000 C   0  0
    5.6728   -5.0095    0.0000 C   0  0
    7.0018   -9.0464    0.0000 C   0  0
    5.5804   -9.0393    0.0000 C   0  0
    5.0000   -6.1822    0.0000 C   0  0
    5.0000   -5.4004    0.0000 C   0  0
  2  1  1  0
  3  2  2  0
  4  2  1  0
  5  1  1  0
  6  5  1  0
  7  4  2  0
  8  7  1  0
  9  3  1  0
 10  4  1  0
 11  1  1  0
 12 10  3  0
 13  7  1  0
 14 11  1  0
 15 14  1  0
 16  5  2  0
 17  6  2  0
 18 15  1  0
 19 15  1  0
 20 16  1  0
 21 17  1  0
  6  3  1  0
  8  9  2  0
 20 21  2  0
M  END
> <COMPOUND_ID>
DNDI1417103

$$$$

  SciTegic04051205032D

 19 21  0  0  0  0            999 V2000
    7.7498   -7.2427    0.0000 C   0  0
    7.7608   -6.4475    0.0000 C   0  0
    8.4271   -7.6366    0.0000 N   0  0
    8.4381   -6.0426    0.0000 C   0  0
    9.1192   -6.4475    0.0000 N   0  0
    9.1192   -7.2427    0.0000 C   0  0
    7.0614   -7.6366    0.0000 S   0  0
    6.3767   -6.4475    0.0000 C   0  0
    6.3767   -7.2427    0.0000 C   0  0
    8.4381   -5.2475    0.0000 O   0  0
    9.8112   -7.6476    0.0000 N   0  0
    5.6883   -6.0426    0.0000 C   0  0
    5.6883   -7.6292    0.0000 C   0  0
   11.1953   -7.6476    0.0000 C   0  0
   12.6199   -7.6623    0.0000 O   0  0
   10.5069   -7.2464    0.0000 C   0  0
   11.9057   -7.2427    0.0000 C   0  0
    5.0000   -6.4475    0.0000 C   0  0
    5.0036   -7.2427    0.0000 C   0  0
  2  1  2  0
  3  1  1  0
  4  2  1  0
  5  6  1  0
  6  3  2  0
  7  1  1  0
  8  2  1  0
  9  7  1  0
 10  4  2  0
 11  6  1  0
 12  8  1  0
 13  9  1  0
 14 16  1  0
 15 17  1  0
 16 11  1  0
 17 14  1  0
 18 12  1  0
 19 13  1  0
  9  8  2  0
  5  4  1  0
 19 18  1  0
M  END
> <COMPOUND_ID>
DNDI1417104

$$$$

  SciTegic04051205032D

 21 24  0  0  0  0            999 V2000
    7.7825   -6.1925    0.0000 C   0  0
    7.0854   -6.5961    0.0000 N   0  0
    7.7642   -5.3852    0.0000 C   0  0
    8.4613   -6.5961    0.0000 C   0  0
    8.4613   -7.4002    0.0000 N   0  0
    6.3882   -5.3852    0.0000 C   0  0
    6.3882   -6.1925    0.0000 C   0  0
    8.4613   -8.9994    0.0000 N   0  0
    8.4613   -5.0000    0.0000 C   0  0
    9.1585   -6.1894    0.0000 C   0  0
    9.1585   -7.8038    0.0000 C   0  0
    7.7642   -7.8038    0.0000 C   0  0
    9.1585   -5.3852    0.0000 C   0  0
    7.7642   -8.5958    0.0000 C   0  0
    9.1585   -8.6111    0.0000 C   0  0
    5.6911   -5.0000    0.0000 C   0  0
    5.6911   -6.5961    0.0000 C   0  0
    8.4613   -9.7883    0.0000 C   0  0
    9.8556   -5.0000    0.0000 C   0  0
    5.0000   -5.3852    0.0000 C   0  0
    5.0000   -6.1925    0.0000 C   0  0
  2  1  1  0
  3  1  2  0
  4  1  1  0
  5  4  1  0
  6  3  1  0
  7  2  1  0
  8 14  1  0
  9  3  1  0
 10  4  2  0
 11  5  1  0
 12  5  1  0
 13 10  1  0
 14 12  1  0
 15 11  1  0
 16  6  2  0
 17  7  2  0
 18  8  1  0
 19 13  1  0
 20 16  1  0
 21 17  1  0
  7  6  1  0
  9 13  2  0
  8 15  1  0
 21 20  2  0
M  END
> <COMPOUND_ID>
DNDI1417105

$$$$

  SciTegic04051205032D

 21 24  0  0  0  0            999 V2000
    8.7083   -7.7734    0.0000 N   0  3
    7.7214   -8.7550    0.0000 C   0  0
    8.1474   -7.1658    0.0000 C   0  0
    7.0982   -8.1785    0.0000 C   0  0
    7.3216   -7.3942    0.0000 C   0  0
    7.3683   -9.4717    0.0000 N   0  0
    8.4849   -8.5525    0.0000 C   0  0
    6.4023   -8.5992    0.0000 C   0  0
    6.5737   -9.4042    0.0000 C   0  0
    6.7451   -6.7918    0.0000 C   0  0
    8.3603   -6.3711    0.0000 C   0  0
    7.7734   -5.7946    0.0000 C   0  0
    9.5444   -7.6176    0.0000 C   0  0
    6.9736   -5.9972    0.0000 C   0  0
    9.0511   -9.1757    0.0000 C   0  0
    5.6024   -8.3499    0.0000 C   0  0
    5.9764   -9.9651    0.0000 C   0  0
    7.5501   -5.0000    0.0000 C   0  0
    8.4590   -5.3272    0.0000 C   0  0
    5.0000   -8.9056    0.0000 C   0  0
    5.1817   -9.7158    0.0000 C   0  0
  2  7  1  0
  3  1  1  0
  4  2  2  0
  5  3  2  0
  6  2  1  0
  7  1  2  0
  8  4  1  0
  9  6  1  0
 10  5  1  0
 11  3  1  0
 12 11  1  0
 13  1  1  0
 14 12  1  0
 15  7  1  0
 16  8  1  0
 17  9  1  0
 18 12  1  0
 19 12  1  0
 20 16  2  0
 21 17  2  0
  5  4  1  0
  9  8  2  0
 10 14  1  0
 21 20  1  0
M  CHG  1   1   1
M  END
> <COMPOUND_ID>
DNDI1417106

$$$$

  SciTegic04051205032D

 20 22  0  0  0  0            999 V2000
    7.3838   -5.6518    0.0000 S   0  0
    7.9662   -6.2317    0.0000 C   0  0
    6.5909   -5.8622    0.0000 C   0  0
    8.7591   -6.0213    0.0000 C   0  0
    6.3728   -6.6551    0.0000 C   0  0
    9.3545   -6.6089    0.0000 C   0  0
    6.5036   -8.0766    0.0000 N   0  0
    6.8603   -7.3299    0.0000 C   0  0
    7.7533   -7.0323    0.0000 C   0  0
    8.3409   -7.6122    0.0000 C   0  0
    5.9956   -5.2746    0.0000 C   0  0
    5.5799   -6.8603    0.0000 C   0  0
    8.9696   -5.2207    0.0000 C   0  0
    9.1415   -7.4018    0.0000 C   0  0
    5.6748   -8.1382    0.0000 C   0  0
   10.1396   -6.3805    0.0000 C   0  0
    5.0000   -6.2856    0.0000 C   0  0
    5.2130   -5.4850    0.0000 C   0  0
    9.7701   -5.0000    0.0000 C   0  0
   10.3501   -5.5799    0.0000 C   0  0
  2  1  1  0
  3  1  1  0
  4  2  1  0
  5  3  2  0
  6  4  2  0
  7  8  1  0
  8  5  1  0
  9  2  2  0
 10  9  1  0
 11  3  1  0
 12  5  1  0
 13  4  1  0
 14 10  2  0
 15  7  1  0
 16  6  1  0
 17 18  1  0
 18 11  2  0
 19 13  2  0
 20 19  1  0
 17 12  2  0
 14  6  1  0
 20 16  2  0
M  END
> <COMPOUND_ID>
DNDI1417107

$$$$

  SciTegic04051205032D

 19 20  0  0  0  0            999 V2000
    7.1449   -6.4845    0.0000 N   0  0
    7.1449   -7.3175    0.0000 C   0  0
    6.4327   -6.0722    0.0000 C   0  0
    5.7122   -7.3175    0.0000 N   0  0
    5.7122   -6.4845    0.0000 C   0  0
    6.4327   -7.7215    0.0000 N   0  0
    9.9980   -7.3175    0.0000 C   0  0
    8.5735   -7.3175    0.0000 N   0  0
    7.8488   -7.7215    0.0000 N   0  0
    9.9938   -6.4845    0.0000 C   0  0
   10.7102   -7.7215    0.0000 C   0  0
    9.2941   -7.7215    0.0000 C   0  0
   10.6977   -6.0722    0.0000 C   0  0
   11.4307   -7.3175    0.0000 C   0  0
    6.4327   -5.2475    0.0000 O   0  0
   11.4307   -6.4845    0.0000 C   0  0
   12.1429   -7.7215    0.0000 Cl  0  0
    9.2816   -6.0722    0.0000 O   0  0
    5.0000   -6.0722    0.0000 C   0  0
  2  1  1  0
  3  1  2  0
  4  5  2  0
  5  3  1  0
  6  2  2  0
  7 12  1  0
  8  9  1  0
  9  2  1  0
 10  7  1  0
 11  7  2  0
 12  8  2  0
 13 10  2  0
 14 11  1  0
 15  3  1  0
 16 14  2  0
 17 14  1  0
 18 10  1  0
 19  5  1  0
  4  6  1  0
 13 16  1  0
M  END
> <COMPOUND_ID>
DNDI1417108

$$$$

  SciTegic04051205032D

 16 17  0  0  0  0            999 V2000
    8.8855   -7.2969    0.0000 C   0  0
    8.9061   -6.4750    0.0000 N   0  0
    9.5938   -7.7198    0.0000 N   0  0
    9.6282   -6.0727    0.0000 C   0  0
   10.3296   -6.4923    0.0000 C   0  0
   10.3193   -7.3175    0.0000 C   0  0
    8.1668   -7.6992    0.0000 N   0  0
    9.6453   -5.2475    0.0000 O   0  0
    7.4653   -7.2728    0.0000 C   0  0
    6.0521   -6.4338    0.0000 C   0  0
    5.3300   -6.0108    0.0000 Br  0  0
    6.7432   -7.6786    0.0000 C   0  0
    7.4756   -6.4544    0.0000 C   0  0
    6.7708   -6.0212    0.0000 C   0  0
    6.0418   -7.2556    0.0000 C   0  0
   11.0276   -7.7473    0.0000 C   0  0
  2  1  1  0
  3  1  2  0
  4  2  1  0
  5  6  2  0
  6  3  1  0
  7  1  1  0
  8  4  2  0
  9  7  1  0
 10 14  2  0
 11 10  1  0
 12  9  1  0
 13  9  2  0
 14 13  1  0
 15 12  2  0
 16  6  1  0
  5  4  1  0
 15 10  1  0
M  END
> <COMPOUND_ID>
DNDI1417109

$$$$

  SciTegic04051205032D

 21 23  0  0  0  0            999 V2000
    6.0900   -8.5969    0.0000 C   0  0
    6.5033   -7.8793    0.0000 C   0  0
    9.0102   -6.4351    0.0000 C   0  0
    6.3262   -9.3781    0.0000 N   0  0
    9.8368   -6.4351    0.0000 C   0  0
    5.6722   -9.8413    0.0000 N   0  0
    5.2589   -8.5969    0.0000 C   0  0
    7.7431   -7.1799    0.0000 N   0  0
    8.5969   -5.7221    0.0000 C   0  0
    7.3298   -7.8793    0.0000 N   0  0
    5.0000   -9.3781    0.0000 C   0  0
    8.5742   -7.1799    0.0000 C   0  0
    6.0900   -7.1572    0.0000 O   0  0
   10.2501   -5.7221    0.0000 C   0  0
    9.0102   -5.0000    0.0000 C   0  0
    9.8368   -5.0000    0.0000 C   0  0
    7.7794   -5.7221    0.0000 O   0  0
   10.2501   -7.1436    0.0000 C   0  0
   11.0675   -5.7221    0.0000 C   0  0
   11.0812   -7.1436    0.0000 C   0  0
   11.4853   -6.4306    0.0000 C   0  0
  2  1  1  0
  3 12  1  0
  4  1  2  0
  5  3  2  0
  6  4  1  0
  7  1  1  0
  8 10  1  0
  9  3  1  0
 10  2  1  0
 11  7  2  0
 12  8  2  0
 13  2  2  0
 14  5  1  0
 15  9  2  0
 16 15  1  0
 17  9  1  0
 18  5  1  0
 19 14  1  0
 20 18  2  0
 21 20  1  0
  6 11  1  0
 16 14  2  0
 19 21  2  0
M  END
> <COMPOUND_ID>
DNDI1417110

$$$$

  SciTegic04051205032D

 20 22  0  0  0  0            999 V2000
    8.6522   -7.9938    0.0000 N   0  0
    8.0577   -8.5421    0.0000 C   0  0
    8.3023   -7.2601    0.0000 C   0  0
    7.3282   -8.1372    0.0000 S   0  0
    7.5053   -7.3403    0.0000 C   0  0
    7.3282   -9.7818    0.0000 N   0  0
    8.0577   -9.3770    0.0000 N   0  0
    8.6522   -6.5054    0.0000 C   0  0
    5.1650  -11.8648    0.0000 N   0  0
    7.3282  -10.6167    0.0000 C   0  0
    6.5945  -11.0215    0.0000 C   0  0
    5.8734  -12.2739    0.0000 C   0  0
    5.1650  -11.0468    0.0000 C   0  0
    8.1758   -5.8349    0.0000 C   0  0
    9.4619   -6.4295    0.0000 C   0  0
    6.5945  -11.8648    0.0000 C   0  0
    5.8734  -10.6167    0.0000 C   0  0
    8.5257   -5.0759    0.0000 C   0  0
    9.8077   -5.6957    0.0000 C   0  0
    9.3396   -5.0000    0.0000 C   0  0
  2  1  2  0
  3  1  1  0
  4  2  1  0
  5  3  2  0
  6  7  1  0
  7  2  1  0
  8  3  1  0
  9 13  1  0
 10  6  2  0
 11 10  1  0
 12 16  1  0
 13 17  2  0
 14  8  1  0
 15  8  2  0
 16 11  2  0
 17 11  1  0
 18 14  2  0
 19 15  1  0
 20 19  2  0
  5  4  1  0
 18 20  1  0
 12  9  2  0
M  END
> <COMPOUND_ID>
DNDI1417111

$$$$

  SciTegic04051205032D

 21 22  0  0  0  0            999 V2000
    7.1440   -6.6546    0.0000 C   0  0
    7.8531   -6.2400    0.0000 C   0  0
    6.4307   -6.2441    0.0000 C   0  0
    7.1440   -7.4841    0.0000 C   0  0
    8.5664   -6.6506    0.0000 C   0  0
    7.8531   -5.4230    0.0000 C   0  0
    9.2797   -6.2400    0.0000 C   0  0
    8.5664   -5.0000    0.0000 C   0  0
    7.1357   -9.1263    0.0000 N   0  0
    9.2797   -5.4106    0.0000 C   0  0
    7.8448  -11.1915    0.0000 N   0  0
    7.8531   -7.8987    0.0000 C   0  0
    6.4307   -5.4106    0.0000 C   0  0
    5.7174   -6.6546    0.0000 C   0  0
    7.8531   -8.7198    0.0000 C   0  0
    7.1316   -9.9515    0.0000 C   0  0
    7.8448  -10.3620    0.0000 C   0  0
    9.9971   -5.0000    0.0000 C   0  0
    5.0000   -6.2441    0.0000 C   0  0
    5.7174   -5.0000    0.0000 C   0  0
    5.0000   -5.4230    0.0000 C   0  0
  2  1  1  0
  3  1  1  0
  4  1  2  0
  5  2  2  0
  6  2  1  0
  7  5  1  0
  8  6  2  0
  9 15  1  0
 10  8  1  0
 11 17  1  0
 12  4  1  0
 13  3  1  0
 14  3  2  0
 15 12  1  0
 16  9  1  0
 17 16  1  0
 18 10  1  0
 19 14  1  0
 20 13  2  0
 21 19  2  0
 21 20  1  0
 10  7  2  0
M  END
> <COMPOUND_ID>
DNDI1417112

$$$$

  SciTegic04051205032D

 18 19  0  0  0  0            999 V2000
    6.4948   -5.9553    0.0000 C   0  0
    6.0757   -6.6810    0.0000 C   0  0
    8.9860   -5.9553    0.0000 C   0  0
    6.3364   -7.4552    0.0000 S   0  0
    7.7315   -5.2475    0.0000 N   0  0
    8.5798   -6.6810    0.0000 C   0  0
    7.3175   -5.9553    0.0000 N   0  0
    9.8165   -5.9553    0.0000 C   0  0
    5.2555   -6.6810    0.0000 C   0  0
    6.0757   -5.2475    0.0000 O   0  0
    5.6618   -7.9330    0.0000 C   0  0
    8.5670   -5.2475    0.0000 C   0  0
    5.0000   -7.4552    0.0000 C   0  0
    8.9860   -7.3938    0.0000 C   0  0
   10.2228   -6.6810    0.0000 C   0  0
    9.8165   -7.3938    0.0000 C   0  0
   11.0430   -6.6810    0.0000 Cl  0  0
    7.7468   -6.6810    0.0000 O   0  0
  2  1  1  0
  3 12  1  0
  4  2  1  0
  5  7  1  0
  6  3  2  0
  7  1  1  0
  8  3  1  0
  9  2  2  0
 10  1  2  0
 11  4  1  0
 12  5  2  0
 13  9  1  0
 14  6  1  0
 15  8  2  0
 16 15  1  0
 17 15  1  0
 18  6  1  0
 11 13  2  0
 14 16  2  0
M  END
> <COMPOUND_ID>
DNDI1417113

$$$$

  SciTegic04051205032D

 18 19  0  0  0  0            999 V2000
    6.9966   -6.5136    0.0000 C   0  0
    9.8872   -6.4682    0.0000 C   0  0
    9.1793   -6.0644    0.0000 C   0  0
    6.2887   -6.1006    0.0000 C   0  0
    8.4714   -6.4818    0.0000 N   0  0
    7.7771   -6.0644    0.0000 O   0  0
    5.5309   -6.4274    0.0000 S   0  0
   10.5950   -6.0644    0.0000 C   0  0
    6.9966   -7.4075    0.0000 O   0  0
    6.2116   -5.2838    0.0000 C   0  0
    5.0000   -5.8057    0.0000 C   0  0
    5.4174   -5.0978    0.0000 C   0  0
    9.1793   -5.2476    0.0000 N   0  0
   10.5950   -5.2476    0.0000 Cl  0  0
    9.8872   -7.2759    0.0000 C   0  0
   11.3029   -6.4682    0.0000 C   0  0
   10.5950   -7.6843    0.0000 C   0  0
   11.3029   -7.2759    0.0000 C   0  0
  2  3  1  0
  3  5  2  0
  4  1  1  0
  5  6  1  0
  6  1  1  0
  7  4  1  0
  8  2  2  0
  9  1  2  0
 10  4  2  0
 11  7  1  0
 12 10  1  0
 13  3  1  0
 14  8  1  0
 15  2  1  0
 16  8  1  0
 17 15  2  0
 18 17  1  0
 11 12  2  0
 16 18  2  0
M  END
> <COMPOUND_ID>
DNDI1417114

$$$$

  SciTegic04051205032D

 21 23  0  0  0  0            999 V2000
    7.1354   -6.4312    0.0000 C   0  0
    7.1441   -5.6493    0.0000 C   0  0
    6.4265   -6.8394    0.0000 C   0  0
    5.7025   -6.4592    0.0000 O   0  0
    5.7025   -5.6493    0.0000 C   0  0
    7.8379   -6.8287    0.0000 C   0  0
    9.9175   -6.4055    0.0000 C   0  0
    8.5276   -6.4055    0.0000 C   0  0
   10.6437   -6.7986    0.0000 N   0  0
    7.8852   -5.2475    0.0000 O   0  0
    9.2494   -6.7986    0.0000 C   0  0
    9.9175   -5.5719    0.0000 C   0  0
    9.2494   -5.1659    0.0000 C   0  0
    8.5276   -5.5719    0.0000 C   0  0
    5.7906   -7.2154    0.0000 C   0  0
    7.1441   -7.2154    0.0000 C   0  0
    5.7025   -5.0026    0.0000 C   0  0
    5.0000   -5.6493    0.0000 C   0  0
   11.3268   -6.4055    0.0000 C   0  0
   10.6437   -5.1659    0.0000 C   0  0
   11.3268   -5.5719    0.0000 C   0  0
  2  1  1  0
  3  1  1  0
  4  3  1  0
  5  2  1  0
  6  1  2  0
  7 11  1  0
  8  6  1  0
  9  7  1  0
 10  2  2  0
 11  8  2  0
 12 13  1  0
 13 14  2  0
 14  8  1  0
 15  3  1  0
 16  3  1  0
 17  5  1  0
 18  5  1  0
 19  9  2  0
 20 12  1  0
 21 20  2  0
  4  5  1  0
 12  7  2  0
 21 19  1  0
M  END
> <COMPOUND_ID>
DNDI1417115

$$$$

  SciTegic04051205032D

 16 17  0  0  0  0            999 V2000
    8.7320   -7.7034    0.0000 C   0  0
    8.7320   -8.4661    0.0000 C   0  0
    7.3654   -7.7034    0.0000 C   0  0
    8.0431   -8.8575    0.0000 N   0  0
    9.4432   -7.3097    0.0000 N   0  0
    7.3654   -8.4661    0.0000 C   0  0
    8.7431   -6.0729    0.0000 C   0  0
    9.4522   -6.4911    0.0000 N   0  0
    6.7145   -7.3276    0.0000 C   0  0
    8.0319   -6.4733    0.0000 N   0  0
    9.4522   -8.8575    0.0000 O   0  0
    6.7145   -8.8575    0.0000 C   0  0
    8.7543   -5.2475    0.0000 N   0  0
    6.0413   -7.7034    0.0000 C   0  0
    6.0413   -8.4661    0.0000 C   0  0
    5.3300   -7.2986    0.0000 Br  0  0
  2  1  1  0
  3  1  1  0
  4  2  1  0
  5  1  2  0
  6  3  1  0
  7  8  1  0
  8  5  1  0
  9  3  2  0
 10  7  2  0
 11  2  2  0
 12  6  2  0
 13  7  1  0
 14  9  1  0
 15 14  2  0
 16 14  1  0
  4  6  1  0
 15 12  1  0
M  END
> <COMPOUND_ID>
DNDI1417116

$$$$

  SciTegic04051205032D

 18 19  0  0  0  0            999 V2000
    7.8018   -6.6965    0.0000 C   0  0
    7.3756   -7.4103    0.0000 N   0  0
    7.3933   -5.9720    0.0000 C   0  0
    9.0483   -7.4103    0.0000 N   0  0
    6.5552   -5.9720    0.0000 C   0  0
   10.2736   -8.1242    0.0000 C   0  0
    8.6222   -6.6965    0.0000 N   0  0
   11.0939   -8.1242    0.0000 C   0  0
    9.8651   -7.4103    0.0000 C   0  0
    6.1504   -6.6965    0.0000 C   0  0
    6.5552   -7.4103    0.0000 C   0  0
    7.8018   -5.2475    0.0000 Cl  0  0
    5.3300   -6.6965    0.0000 Cl  0  0
   11.4988   -7.4103    0.0000 O   0  0
    9.8651   -8.8451    0.0000 C   0  0
   11.4988   -8.8451    0.0000 C   0  0
   10.2736   -9.5589    0.0000 C   0  0
   11.0939   -9.5589    0.0000 C   0  0
  2  1  1  0
  3  1  2  0
  4  7  1  0
  5  3  1  0
  6  9  1  0
  7  1  1  0
  8  6  1  0
  9  4  2  0
 10  5  2  0
 11  2  2  0
 12  3  1  0
 13 10  1  0
 14  8  1  0
 15  6  2  0
 16  8  2  0
 17 15  1  0
 18 17  2  0
 11 10  1  0
 16 18  1  0
M  END
> <COMPOUND_ID>
DNDI1417117

$$$$

  SciTegic04051205032D

 18 19  0  0  0  0            999 V2000
    6.6818   -7.8322    0.0000 C   0  0
    7.4031   -7.4089    0.0000 C   0  0
    6.2415   -7.1299    0.0000 C   0  0
    8.1150   -7.8208    0.0000 C   0  0
    6.6559   -6.4287    0.0000 C   0  0
    7.4031   -6.5901    0.0000 C   0  0
    5.4176   -7.1299    0.0000 C   0  0
    7.1431   -8.5611    0.0000 O   0  0
    5.4176   -5.7113    0.0000 C   0  0
    8.8363   -6.5901    0.0000 C   0  0
    5.0133   -6.4287    0.0000 C   0  0
    8.8363   -7.4089    0.0000 C   0  0
    8.1150   -6.1770    0.0000 C   0  0
    6.2294   -5.7113    0.0000 C   0  0
    9.5595   -6.1770    0.0000 Cl  0  0
    5.0000   -5.0000    0.0000 Cl  0  0
    5.9738   -8.2441    0.0000 C   0  0
    5.2942   -7.8075    0.0000 N   0  0
  2  1  1  0
  3  1  1  0
  4  2  2  0
  5  3  1  0
  6  2  1  0
  7  3  2  0
  8  1  1  0
  9 11  2  0
 10 13  1  0
 11  7  1  0
 12  4  1  0
 13  6  2  0
 14  5  2  0
 15 10  1  0
 16  9  1  0
 17  1  1  0
 18 17  1  0
  9 14  1  0
 10 12  2  0
M  END
> <COMPOUND_ID>
DNDI1417118

$$$$

  SciTegic04051205032D

 18 19  0  0  0  0            999 V2000
    9.3045   -7.0807    0.0000 C   0  0
    7.8751   -7.0807    0.0000 N   0  3
    8.5898   -7.4821    0.0000 C   0  0
    6.4375   -6.2534    0.0000 C   0  0
   10.0164   -7.4821    0.0000 C   0  0
    9.3045   -6.2534    0.0000 C   0  0
    6.4375   -7.0807    0.0000 C   0  0
    7.1522   -5.8383    0.0000 C   0  0
    5.7146   -5.8273    0.0000 N   0  0
    7.8751   -6.2534    0.0000 C   0  0
    7.1522   -7.4821    0.0000 C   0  0
    9.9999   -8.3039    0.0000 Cl  0  0
    8.6036   -5.8438    0.0000 Cl  0  0
   10.7311   -6.2534    0.0000 C   0  0
   10.7311   -7.0807    0.0000 C   0  0
   10.0164   -5.8383    0.0000 C   0  0
    5.7146   -5.0000    0.0000 C   0  0
    5.0000   -6.2534    0.0000 C   0  0
  2  3  1  0
  3  1  1  0
  4  7  1  0
  5  1  2  0
  6  1  1  0
  7 11  2  0
  8 10  1  0
  9  4  1  0
 10  2  2  0
 11  2  1  0
 12  5  1  0
 13  6  1  0
 14 16  1  0
 15  5  1  0
 16  6  2  0
 17  9  1  0
 18  9  1  0
 14 15  2  0
  4  8  2  0
M  CHG  1   2   1
M  END
> <COMPOUND_ID>
DNDI1417119

$$$$

  SciTegic04051205032D

 19 20  0  0  0  0            999 V2000
    8.8435   -6.2906    0.0000 N   0  0
    8.8435   -7.1142    0.0000 C   0  0
    9.6350   -6.0390    0.0000 C   0  0
   10.1291   -6.6750    0.0000 C   0  0
    9.6350   -7.3704    0.0000 S   0  0
    8.1847   -7.5946    0.0000 N   0  0
    9.8730   -5.2475    0.0000 O   0  0
    7.4298   -7.2652    0.0000 C   0  0
   10.5455   -7.3887    0.0000 C   0  0
   10.5455   -5.9612    0.0000 C   0  0
    5.9199   -6.6017    0.0000 C   0  0
    7.3337   -6.4416    0.0000 C   0  0
    6.7572   -7.7547    0.0000 C   0  0
    6.0114   -7.4253    0.0000 C   0  0
    6.5925   -6.1122    0.0000 C   0  0
    5.1650   -6.2586    0.0000 O   0  0
   11.3691   -5.9612    0.0000 O   0  0
   11.3691   -7.3887    0.0000 O   0  0
    5.0918   -5.4488    0.0000 C   0  0
  2  1  2  0
  3  1  1  0
  4  3  1  0
  5  2  1  0
  6  2  1  0
  7  3  2  0
  8  6  1  0
  9  4  1  0
 10  4  1  0
 11 14  2  0
 12  8  1  0
 13  8  2  0
 14 13  1  0
 15 12  2  0
 16 11  1  0
 17 10  1  0
 18  9  1  0
 19 16  1  0
  4  5  1  0
 15 11  1  0
M  END
> <COMPOUND_ID>
DNDI1417120

$$$$

  SciTegic04051205032D

 21 23  0  0  0  0            999 V2000
    5.9315   -6.7922    0.0000 N   0  0
   10.9842   -6.3011    0.0000 N   0  0
    8.0706   -7.4326    0.0000 C   0  0
    9.2148   -6.5644    0.0000 C   0  0
    8.4072   -6.6707    0.0000 C   0  0
   10.3868   -5.7493    0.0000 C   0  0
    6.7543   -6.8706    0.0000 C   0  0
    5.7518   -5.9847    0.0000 N   0  0
   11.6955   -5.8986    0.0000 N   0  0
    9.5464   -5.8252    0.0000 C   0  0
    7.2504   -7.5389    0.0000 C   0  0
    7.0834   -6.1112    0.0000 C   0  0
   10.7134   -5.0000    0.0000 C   0  0
   11.5386   -5.0987    0.0000 C   0  0
    6.4657   -5.5746    0.0000 C   0  0
    7.8908   -5.9948    0.0000 O   0  0
    9.6958   -7.2276    0.0000 C   0  0
    8.5743   -8.1009    0.0000 C   0  0
    5.0000   -5.6429    0.0000 C   0  0
   12.4549   -6.2125    0.0000 C   0  0
    9.3844   -7.9921    0.0000 C   0  0
  2  6  2  0
  3 11  2  0
  4  5  1  0
  5  3  1  0
  6 10  1  0
  7  1  2  0
  8  1  1  0
  9  2  1  0
 10  4  2  0
 11  7  1  0
 12  7  1  0
 13  6  1  0
 14 13  2  0
 15  8  1  0
 16  5  2  0
 17 21  1  0
 18  3  1  0
 19  8  1  0
 20  9  1  0
 21 18  1  0
 15 12  2  0
 17  4  1  0
  9 14  1  0
M  END
> <COMPOUND_ID>
DNDI1417121

$$$$

  SciTegic04051205032D

 18 19  0  0  0  0            999 V2000
    6.7726   -7.4790    0.0000 C   0  0
    6.0600   -7.8951    0.0000 C   0  0
    7.4802   -7.8827    0.0000 N   0  0
    7.4802   -8.7173    0.0000 N   0  0
    6.0600   -8.7248    0.0000 C   0  0
    6.7726   -9.1235    0.0000 C   0  0
    8.1953   -7.4666    0.0000 C   0  0
    8.1953   -6.6494    0.0000 C   0  0
    6.7851   -6.6568    0.0000 O   0  0
    5.3300   -7.4790    0.0000 Cl  0  0
    7.4877   -6.2408    0.0000 O   0  0
    8.9204   -6.2283    0.0000 C   0  0
    5.3424   -9.1459    0.0000 Cl  0  0
    8.9204   -5.4111    0.0000 C   0  0
    9.6404   -6.6494    0.0000 C   0  0
    9.6279   -5.0000    0.0000 C   0  0
   10.3505   -6.2283    0.0000 C   0  0
   10.3505   -5.4111    0.0000 C   0  0
  2  1  1  0
  3  1  1  0
  4  3  1  0
  5  2  2  0
  6  5  1  0
  7  3  1  0
  8  7  1  0
  9  1  2  0
 10  2  1  0
 11  8  2  0
 12  8  1  0
 13  5  1  0
 14 12  2  0
 15 12  1  0
 16 14  1  0
 17 15  2  0
 18 17  1  0
  6  4  2  0
 18 16  2  0
M  END
> <COMPOUND_ID>
DNDI1417122

$$$$

  SciTegic04051205032D

 21 23  0  0  0  0            999 V2000
    7.1258   -6.3661    0.0000 C   0  0
    6.4200   -6.8062    0.0000 C   0  0
    7.8566   -6.7605    0.0000 C   0  0
    7.1799   -8.0227    0.0000 O   0  0
    6.4449   -7.6324    0.0000 C   0  0
    7.8774   -7.5868    0.0000 C   0  0
    7.1009   -5.5398    0.0000 O   0  0
    8.5541   -6.3204    0.0000 C   0  0
    9.2850   -6.7148    0.0000 N   0  0
    9.9866   -6.2747    0.0000 C   0  0
   11.3942   -5.4276    0.0000 C   0  0
    9.9701   -5.4526    0.0000 C   0  0
   10.7050   -6.6733    0.0000 C   0  0
    5.6976   -6.4117    0.0000 C   0  0
   10.6676   -5.0290    0.0000 C   0  0
   11.4108   -6.2498    0.0000 C   0  0
   12.1001   -5.0000    0.0000 O   0  0
    5.7432   -8.0643    0.0000 C   0  0
   12.8184   -5.3987    0.0000 C   0  0
    5.0000   -6.8477    0.0000 C   0  0
    5.0249   -7.6740    0.0000 C   0  0
  2  1  1  0
  3  1  1  0
  4  6  1  0
  5  2  2  0
  6  3  1  0
  7  1  2  0
  8  3  1  0
  9  8  1  0
 10  9  1  0
 11 15  1  0
 12 10  1  0
 13 10  2  0
 14  2  1  0
 15 12  2  0
 16 13  1  0
 17 11  1  0
 18  5  1  0
 19 17  1  0
 20 14  2  0
 21 20  1  0
  4  5  1  0
 21 18  2  0
 11 16  2  0
M  END
> <COMPOUND_ID>
DNDI1417123

$$$$

  SciTegic04051205032D

 21 24  0  0  0  0            999 V2000
    6.4604   -7.3588    0.0000 C   0  0
    7.2012   -7.7662    0.0000 C   0  0
    7.2012   -6.0942    0.0000 C   0  0
    7.9367   -7.3588    0.0000 C   0  0
    6.4604   -6.5175    0.0000 C   0  0
    7.9367   -6.5175    0.0000 C   0  0
    5.7249   -7.7662    0.0000 C   0  0
    5.0000   -7.3588    0.0000 C   0  0
    5.0000   -6.4963    0.0000 C   0  0
    5.7249   -6.0889    0.0000 C   0  0
    7.2012   -8.6287    0.0000 O   0  0
    7.2012   -5.2475    0.0000 O   0  0
    8.6669   -7.7662    0.0000 C   0  0
    6.0688   -6.9778    0.0000 C   0  0
    5.4921   -6.6233    0.0000 C   0  0
    5.5608   -8.5758    0.0000 O   0  0
    8.6669   -6.0942    0.0000 C   0  0
    8.6669   -8.5864    0.0000 O   0  0
    9.4024   -6.5175    0.0000 C   0  0
    9.4024   -7.3588    0.0000 C   0  0
    6.1852   -9.1155    0.0000 C   0  0
  2  1  1  0
  3  5  1  0
  4  2  1  0
  5  1  1  0
  6  4  1  0
  7  1  1  0
  8  7  1  0
  9 10  1  0
 10  5  1  0
 11  2  2  0
 12  3  2  0
 13  4  2  0
 14  7  1  0
 15 10  1  0
 16  7  1  0
 17  6  2  0
 18 13  1  0
 19 17  1  0
 20 13  1  0
 21 16  1  0
  6  3  1  0
  9  8  2  0
 15 14  1  0
 19 20  2  0
M  END
> <COMPOUND_ID>
DNDI1417124

$$$$

  SciTegic04051205032D

 22 25  0  0  0  0            999 V2000
    5.7844   -7.4578    0.0000 N   0  0
   10.7584   -6.6088    0.0000 N   0  0
    9.1804   -7.0518    0.0000 C   0  0
   10.5554   -7.3901    0.0000 C   0  0
    9.7587   -7.6116    0.0000 C   0  0
    6.9933   -6.8826    0.0000 C   0  0
   10.1678   -6.0336    0.0000 C   0  0
    8.3837   -7.2794    0.0000 C   0  0
    7.7931   -6.6826    0.0000 C   0  0
    9.3742   -6.2550    0.0000 C   0  0
    6.5965   -7.6116    0.0000 C   0  0
    6.4365   -6.2827    0.0000 C   0  0
    5.6982   -6.6365    0.0000 C   0  0
   11.5582   -6.3504    0.0000 C   0  0
   11.1460   -7.9654    0.0000 C   0  0
    9.5649   -8.4329    0.0000 C   0  0
    6.4950   -5.4645    0.0000 C   0  0
    5.0000   -6.1720    0.0000 C   0  0
   10.9522   -8.7651    0.0000 C   0  0
   10.1555   -8.9866    0.0000 C   0  0
    5.8121   -5.0000    0.0000 C   0  0
    5.0738   -5.3322    0.0000 C   0  0
  2  7  1  0
  3  8  2  0
  4  5  2  0
  5  3  1  0
  6 11  1  0
  7 10  2  0
  8  9  1  0
  9  6  2  0
 10  3  1  0
 11  1  2  0
 12 13  2  0
 13  1  1  0
 14  2  1  0
 15  4  1  0
 16  5  1  0
 17 12  1  0
 18 13  1  0
 19 20  1  0
 20 16  2  0
 21 22  1  0
 22 18  2  0
 12  6  1  0
 21 17  2  0
  4  2  1  0
 19 15  2  0
M  END
> <COMPOUND_ID>
DNDI1417125

$$$$

  SciTegic04051205032D

 21 24  0  0  0  0            999 V2000
    9.8783   -7.4074    0.0000 N   0  0
   10.5571   -7.0228    0.0000 C   0  0
   10.5571   -6.2505    0.0000 C   0  0
    9.2096   -6.2505    0.0000 C   0  0
    9.2096   -7.0228    0.0000 C   0  0
   11.2625   -7.4509    0.0000 C   0  0
    9.8716   -8.2299    0.0000 C   0  0
   10.5737   -8.6378    0.0000 N   0  0
    8.5341   -7.4074    0.0000 C   0  0
    8.5341   -5.8727    0.0000 C   0  0
    7.8621   -6.2505    0.0000 C   0  0
   11.2625   -5.8058    0.0000 C   0  0
    7.1499   -5.8359    0.0000 O   0  0
    7.8621   -7.0228    0.0000 C   0  0
   11.2725   -8.2500    0.0000 C   0  0
    6.4344   -6.2438    0.0000 C   0  0
   11.9714   -7.0429    0.0000 C   0  0
   11.9714   -6.2204    0.0000 C   0  0
    5.7122   -5.8225    0.0000 C   0  0
    5.0000   -6.2438    0.0000 C   0  0
    5.6988   -5.0000    0.0000 C   0  0
  2  1  1  0
  3  2  2  0
  4  5  2  0
  5  1  1  0
  6  2  1  0
  7  1  1  0
  8  7  1  0
  9  5  1  0
 10  4  1  0
 11 10  2  0
 12  3  1  0
 13 11  1  0
 14  9  2  0
 15  8  1  0
 16 13  1  0
 17  6  1  0
 18 17  1  0
 19 16  1  0
 20 19  1  0
 21 19  1  0
  4  3  1  0
 15  6  1  0
 14 11  1  0
 18 12  1  0
M  END
> <COMPOUND_ID>
DNDI1417126

$$$$

  SciTegic04051205032D

 21 22  0  0  0  0            999 V2000
    5.5600   -6.3920    0.0000 N   0  0
    6.2639   -5.8868    0.0000 C   0  0
    5.6445   -7.2467    0.0000 C   0  0
    7.0593   -6.2343    0.0000 C   0  0
    6.4605   -7.6010    0.0000 N   0  0
    7.1462   -7.0753    0.0000 C   0  0
   11.1208   -6.2662    0.0000 C   0  0
    9.6580   -6.9496    0.0000 C   0  0
    9.7266   -6.1405    0.0000 C   0  0
   10.3163   -7.4136    0.0000 C   0  0
   11.0522   -7.0685    0.0000 C   0  0
   10.4557   -5.8068    0.0000 C   0  0
    6.1839   -5.0892    0.0000 N   0  0
    5.0000   -7.7199    0.0000 N   0  0
    7.7244   -5.7428    0.0000 C   0  0
    7.9141   -7.3953    0.0000 C   0  0
    9.0615   -5.6880    0.0000 C   0  0
    8.3872   -6.1725    0.0000 C   0  0
   10.2591   -8.2090    0.0000 C   0  0
   10.5357   -5.0000    0.0000 C   0  0
   11.7333   -7.5233    0.0000 C   0  0
  2  1  2  0
  3  1  1  0
  4  2  1  0
  5  3  2  0
  6  5  1  0
  7 12  1  0
  8  9  1  0
  9 17  1  0
 10  8  2  0
 11 10  1  0
 12  9  2  0
 13  2  1  0
 14  3  1  0
 15  4  1  0
 16  6  1  0
 17 18  1  0
 18 15  1  0
 19 10  1  0
 20 12  1  0
 21 11  1  0
  6  4  2  0
 11  7  2  0
M  END
> <COMPOUND_ID>
DNDI1417127

$$$$

  SciTegic04051205032D

 20 22  0  0  0  0            999 V2000
    9.2779   -6.2103    0.0000 C   0  0
    8.5877   -7.4507    0.0000 N   0  0
    8.5877   -5.7902    0.0000 S   0  0
    9.9981   -5.8169    0.0000 C   0  0
    9.2779   -7.0272    0.0000 C   0  0
   10.7183   -6.2403    0.0000 C   0  0
    7.8675   -6.2103    0.0000 C   0  0
   11.4785   -5.8669    0.0000 N   0  3
    7.8675   -7.0272    0.0000 C   0  0
    7.1573   -5.7902    0.0000 C   0  0
    9.9981   -7.4507    0.0000 C   0  0
   10.7183   -7.0006    0.0000 C   0  0
    6.4371   -6.2103    0.0000 C   0  0
    5.7002   -5.8402    0.0000 N   0  0
    7.1573   -7.4507    0.0000 C   0  0
    6.4371   -7.0272    0.0000 C   0  0
   11.5586   -5.0500    0.0000 C   0  0
   12.1721   -6.3104    0.0000 C   0  0
    5.6502   -5.0000    0.0000 C   0  0
    5.0000   -6.2904    0.0000 C   0  0
  2  5  2  0
  3  1  1  0
  4  1  2  0
  5  1  1  0
  6  4  1  0
  7  3  1  0
  8  6  2  0
  9  2  1  0
 10  7  1  0
 11  5  1  0
 12 11  2  0
 13 10  2  0
 14 13  1  0
 15  9  1  0
 16 15  2  0
 17  8  1  0
 18  8  1  0
 19 14  1  0
 20 14  1  0
  6 12  1  0
  7  9  2  0
 13 16  1  0
M  CHG  1   8   1
M  END
> <COMPOUND_ID>
DNDI1417128

$$$$

  SciTegic04051205032D

 22 25  0  0  0  0            999 V2000
    7.7687   -8.6250    0.0000 C   0  0
    7.7687   -7.8185    0.0000 N   0  0
    6.3843   -8.6167    0.0000 N   0  0
    7.0786   -7.4070    0.0000 C   0  0
    6.3843   -7.8061    0.0000 C   0  0
    8.4629   -9.0241    0.0000 N   0  0
    5.6859   -9.0033    0.0000 C   0  0
    5.6984   -7.4070    0.0000 C   0  0
    7.0827   -6.6088    0.0000 C   0  0
    5.0000   -8.6042    0.0000 C   0  0
    5.0000   -7.8019    0.0000 C   0  0
    8.4546   -9.8264    0.0000 C   0  0
    7.7812   -6.2055    0.0000 C   0  0
    6.3926   -6.2055    0.0000 C   0  0
    7.7562  -10.2213    0.0000 C   0  0
    9.1406  -10.2213    0.0000 C   0  0
    6.3926   -5.3990    0.0000 C   0  0
    7.7812   -5.3990    0.0000 C   0  0
    7.7437  -11.0237    0.0000 C   0  0
    9.1406  -11.0237    0.0000 C   0  0
    7.0827   -5.0000    0.0000 C   0  0
    8.4421  -11.4228    0.0000 C   0  0
  2  1  2  0
  3  1  1  0
  4  2  1  0
  5  3  1  0
  6  1  1  0
  7  3  1  0
  8  5  1  0
  9  4  1  0
 10  7  2  0
 11 10  1  0
 12  6  1  0
 13  9  2  0
 14  9  1  0
 15 12  2  0
 16 12  1  0
 17 14  2  0
 18 13  1  0
 19 15  1  0
 20 16  2  0
 21 17  1  0
 22 20  1  0
  5  4  2  0
 11  8  2  0
 22 19  2  0
 21 18  2  0
M  END
> <COMPOUND_ID>
DNDI1417129

$$$$

  SciTegic04051205032D

 21 22  0  0  0  0            999 V2000
    7.6553   -8.7289    0.0000 N   0  0
    7.6553   -9.5612    0.0000 C   0  0
    6.9451   -9.9718    0.0000 C   0  0
    8.3656   -7.4600    0.0000 C   0  0
    6.9451   -8.3183    0.0000 C   0  0
    6.2386   -8.7067    0.0000 C   0  0
    6.2237   -9.5464    0.0000 C   0  0
    8.3656   -8.3035    0.0000 C   0  0
    9.0758   -7.0494    0.0000 N   0  0
    5.4950   -9.9497    0.0000 N   0  0
    7.6553   -7.0494    0.0000 O   0  0
    6.9451  -10.7931    0.0000 C   0  0
    8.3656   -9.9718    0.0000 C   0  0
    9.7898   -7.4600    0.0000 C   0  0
    9.0758   -6.2319    0.0000 C   0  0
    9.7898   -8.2850    0.0000 C   0  0
    9.7898   -5.8176    0.0000 C   0  0
    7.6553  -11.2037    0.0000 C   0  0
    8.3656  -10.8153    0.0000 C   0  0
    9.7898   -5.0000    0.0000 C   0  0
   10.5001   -8.7030    0.0000 C   0  0
  2  1  1  0
  3  2  2  0
  4  8  1  0
  5  1  1  0
  6  5  2  0
  7  6  1  0
  8  1  1  0
  9  4  1  0
 10  7  2  0
 11  4  2  0
 12  3  1  0
 13  2  1  0
 14  9  1  0
 15  9  1  0
 16 14  1  0
 17 15  1  0
 18 19  1  0
 19 13  2  0
 20 17  1  0
 21 16  1  0
  3  7  1  0
 12 18  2  0
M  END
> <COMPOUND_ID>
DNDI1417130

$$$$

  SciTegic04051205032D

 20 22  0  0  0  0            999 V2000
    6.9869   -6.7734    0.0000 S   0  0
    7.2742   -5.0000    0.0000 O   0  0
    8.0323   -5.4297    0.0000 C   0  0
    8.0323   -6.2835    0.0000 C   0  0
    7.6683   -6.7734    0.0000 C   0  0
    6.5134   -6.2835    0.0000 C   0  0
    6.5134   -5.4297    0.0000 C   0  0
    6.5572   -8.9492    0.0000 N   0  0
    8.7849   -6.7132    0.0000 C   0  0
    8.7849   -5.0000    0.0000 C   0  0
    8.1062   -7.4467    0.0000 C   0  0
    5.7608   -6.7132    0.0000 C   0  0
    5.7608   -5.0000    0.0000 C   0  0
    6.9212   -8.2211    0.0000 C   0  0
    6.9951   -9.6224    0.0000 C   0  0
    7.7395   -8.1746    0.0000 C   0  0
    9.5457   -6.2835    0.0000 C   0  0
    9.5457   -5.4297    0.0000 C   0  0
    5.0000   -5.4297    0.0000 C   0  0
    5.0000   -6.2835    0.0000 C   0  0
  2  7  1  0
  3  4  2  0
  4  5  1  0
  5  1  1  0
  6  1  1  0
  7  6  2  0
  8 14  1  0
  9  4  1  0
 10  3  1  0
 11  5  1  0
 12  6  1  0
 13  7  1  0
 14 16  1  0
 15  8  1  0
 16 11  1  0
 17  9  2  0
 18 17  1  0
 19 13  2  0
 20 12  2  0
 19 20  1  0
  2  3  1  0
 18 10  2  0
M  END
> <COMPOUND_ID>
DNDI1417131

$$$$

  SciTegic04051205032D

 21 23  0  0  0  0            999 V2000
    8.3987   -5.8281    0.0000 C   0  0
    9.6443   -6.5194    0.0000 C   0  0
    7.9162   -6.5194    0.0000 N   0  0
   10.4725   -6.5194    0.0000 N   0  0
    9.2268   -5.7849    0.0000 N   0  0
    7.9162   -5.1728    0.0000 O   0  0
    7.1531   -5.4105    0.0000 C   0  0
    9.2628   -7.2106    0.0000 N   0  0
    7.1531   -6.2745    0.0000 C   0  0
   10.8756   -7.2106    0.0000 C   0  0
   10.4725   -7.9378    0.0000 C   0  0
    9.6659   -7.9378    0.0000 C   0  0
    6.4330   -5.0000    0.0000 C   0  0
    6.4330   -6.6922    0.0000 C   0  0
    5.7417   -5.4105    0.0000 C   0  0
   11.7181   -7.2106    0.0000 O   0  0
    5.7417   -6.2745    0.0000 C   0  0
    8.4346   -8.6939    0.0000 O   0  0
    9.2987   -8.6579    0.0000 C   0  0
    5.0000   -5.0505    0.0000 C   0  0
    8.0531   -9.4140    0.0000 C   0  0
  2  5  1  0
  3  1  2  0
  4  2  1  0
  5  1  1  0
  6  1  1  0
  7  6  1  0
  8  2  2  0
  9  3  1  0
 10  4  2  0
 11 10  1  0
 12  8  1  0
 13  7  1  0
 14  9  1  0
 15 13  2  0
 16 10  1  0
 17 14  2  0
 18 19  1  0
 19 12  1  0
 20 15  1  0
 21 18  1  0
  9  7  2  0
 17 15  1  0
 11 12  2  0
M  END
> <COMPOUND_ID>
DNDI1417132

$$$$

  SciTegic04051205032D

 21 22  0  0  0  0            999 V2000
    6.4536   -7.1563    0.0000 C   0  0
    7.2702   -7.1435    0.0000 C   0  0
    5.9433   -7.8410    0.0000 N   0  0
    5.1650   -7.5348    0.0000 O   0  0
    5.9731   -6.4801    0.0000 C   0  0
    5.1820   -6.6970    0.0000 N   0  0
   10.1664   -6.4290    0.0000 C   0  0
    8.5121   -6.4290    0.0000 N   0  0
    9.7582   -5.7145    0.0000 C   0  0
    7.6785   -6.4290    0.0000 N   0  0
    7.6785   -7.8453    0.0000 O   0  0
   10.9830   -6.4290    0.0000 C   0  0
    8.9204   -5.7145    0.0000 C   0  0
   10.9830   -7.8453    0.0000 C   0  0
   11.3913   -8.5725    0.0000 C   0  0
    9.7582   -7.1435    0.0000 O   0  0
    6.2367   -5.7145    0.0000 C   0  0
   11.3913   -7.1435    0.0000 C   0  0
   10.1664   -5.0000    0.0000 C   0  0
   10.9830   -5.0000    0.0000 C   0  0
   11.3913   -5.7145    0.0000 C   0  0
  2  1  1  0
  3  1  2  0
  4  3  1  0
  5  1  1  0
  6  5  2  0
  7  9  2  0
  8 10  1  0
  9 13  1  0
 10  2  1  0
 11  2  2  0
 12  7  1  0
 13  8  2  0
 14 18  1  0
 15 14  2  0
 16  7  1  0
 17  5  1  0
 18 12  1  0
 19  9  1  0
 20 19  2  0
 21 20  1  0
  6  4  1  0
 21 12  2  0
M  END
> <COMPOUND_ID>
DNDI1417133

$$$$

  SciTegic04051205032D

 21 24  0  0  0  0            999 V2000
    8.3257   -7.0499    0.0000 N   0  0
    7.0054   -7.0499    0.0000 C   0  0
    8.9978   -6.7014    0.0000 C   0  0
    8.3257   -7.8121    0.0000 N   0  0
    7.6753   -8.1932    0.0000 N   0  0
    7.0054   -7.8121    0.0000 N   0  0
    8.9978   -5.9315    0.0000 C   0  0
    9.6720   -5.5504    0.0000 O   0  0
    9.6720   -7.0825    0.0000 C   0  0
   10.3202   -5.9315    0.0000 C   0  0
    6.3149   -6.6525    0.0000 C   0  0
   10.3202   -6.7014    0.0000 C   0  0
   10.3202   -5.0000    0.0000 O   0  0
    8.9978   -5.0000    0.0000 C   0  0
   10.9934   -7.1064    0.0000 O   0  0
    5.6580   -7.0336    0.0000 C   0  0
    6.3149   -5.8924    0.0000 C   0  0
    5.6580   -7.7871    0.0000 C   0  0
    5.0000   -6.6525    0.0000 C   0  0
    5.6580   -5.5113    0.0000 C   0  0
    5.0000   -5.8924    0.0000 C   0  0
  2  1  1  0
  3  1  1  0
  4  1  1  0
  5  4  2  0
  6  2  2  0
  7  3  1  0
  8  7  1  0
  9  3  1  0
 10 12  1  0
 11  2  1  0
 12  9  1  0
 13 14  1  0
 14  7  1  0
 15 12  2  0
 16 11  1  0
 17 11  2  0
 18 16  1  0
 19 16  2  0
 20 17  1  0
 21 20  2  0
  5  6  1  0
 10  8  1  0
 13 10  1  0
 19 21  1  0
M  END
> <COMPOUND_ID>
DNDI1417134

$$$$

  SciTegic04051205032D

 22 25  0  0  0  0            999 V2000
    7.7047   -7.1417    0.0000 C   0  0
    7.2484   -7.8115    0.0000 N   0  0
    7.2190   -6.4757    0.0000 N   0  0
    6.4462   -7.5722    0.0000 C   0  0
    6.4352   -6.7664    0.0000 C   0  0
    8.5253   -7.1417    0.0000 C   0  0
    8.9411   -6.4315    0.0000 C   0  0
    9.7617   -6.4315    0.0000 C   0  0
   10.1591   -5.7250    0.0000 O   0  0
   10.9908   -5.7250    0.0000 C   0  0
    8.9411   -7.8519    0.0000 C   0  0
    9.7617   -7.8519    0.0000 C   0  0
    5.7507   -8.0065    0.0000 C   0  0
    5.7176   -6.3800    0.0000 C   0  0
   10.1776   -7.1417    0.0000 C   0  0
   11.4324   -6.4462    0.0000 C   0  0
   11.4103   -5.0000    0.0000 C   0  0
    5.0110   -7.6054    0.0000 C   0  0
    5.0000   -6.7995    0.0000 C   0  0
   12.2641   -6.4315    0.0000 C   0  0
   12.2456   -5.0074    0.0000 C   0  0
   12.6725   -5.7140    0.0000 C   0  0
  2  1  2  0
  3  1  1  0
  4  2  1  0
  5  3  1  0
  6  1  1  0
  7  6  1  0
  8  7  2  0
  9  8  1  0
 10  9  1  0
 11  6  2  0
 12 11  1  0
 13  4  2  0
 14  5  2  0
 15 12  2  0
 16 10  2  0
 17 10  1  0
 18 13  1  0
 19 14  1  0
 20 16  1  0
 21 17  2  0
 22 21  1  0
  4  5  1  0
 18 19  2  0
 15  8  1  0
 22 20  2  0
M  END
> <COMPOUND_ID>
DNDI1417135

$$$$

  SciTegic04051205032D

 20 21  0  0  0  0            999 V2000
    7.0379   -6.1245    0.0000 C   0  0
    6.3632   -5.7711    0.0000 C   0  0
    5.7160   -6.1842    0.0000 S   0  0
    9.7918   -6.8542    0.0000 C   0  0
    8.3735   -6.0602    0.0000 N   0  0
    9.7596   -6.0189    0.0000 C   0  0
    7.6942   -5.7114    0.0000 N   0  0
    6.3219   -5.0000    0.0000 C   0  0
    7.0746   -6.8864    0.0000 O   0  0
    5.0367   -5.8262    0.0000 C   0  0
    5.0000   -5.0551    0.0000 C   0  0
   10.5307   -7.2306    0.0000 C   0  0
    9.0207   -5.6471    0.0000 C   0  0
    9.8744   -8.4974    0.0000 C   0  0
    9.9111   -9.3236    0.0000 C   0  0
    9.0987   -7.2995    0.0000 O   0  0
   10.5629   -8.0568    0.0000 C   0  0
   10.4527   -5.5783    0.0000 C   0  0
   11.1825   -5.9638    0.0000 C   0  0
   11.2329   -6.7900    0.0000 C   0  0
  2  1  1  0
  3  2  1  0
  4  6  1  0
  5  7  1  0
  6 13  1  0
  7  1  1  0
  8  2  2  0
  9  1  2  0
 10  3  1  0
 11  8  1  0
 12  4  2  0
 13  5  2  0
 14 17  1  0
 15 14  2  0
 16  4  1  0
 17 12  1  0
 18  6  2  0
 19 18  1  0
 20 19  2  0
 10 11  2  0
 20 12  1  0
M  END
> <COMPOUND_ID>
DNDI1417136

$$$$

  SciTegic04051205032D

 21 22  0  0  0  0            999 V2000
   10.3726   -5.7277    0.0000 C   0  0
   10.7917   -6.4441    0.0000 C   0  0
    9.9572   -6.4441    0.0000 C   0  0
    9.1342   -6.4441    0.0000 C   0  0
   11.5232   -6.8480    0.0000 C   0  0
    7.8806   -7.1490    0.0000 N   0  0
    7.4805   -7.8616    0.0000 C   0  0
    8.7188   -7.1490    0.0000 O   0  0
   12.2358   -6.4213    0.0000 C   0  0
    8.7188   -5.7277    0.0000 O   0  0
    6.6422   -7.8616    0.0000 C   0  0
   10.7383   -5.0000    0.0000 C   0  0
    9.7743   -5.1524    0.0000 C   0  0
    7.8806   -8.5703    0.0000 N   0  0
   12.2129   -5.6058    0.0000 C   0  0
   12.9445   -6.8251    0.0000 C   0  0
    6.2383   -7.1490    0.0000 C   0  0
    6.2383   -8.5703    0.0000 C   0  0
    5.4038   -7.1490    0.0000 C   0  0
    5.4038   -8.5703    0.0000 C   0  0
    5.0000   -7.8616    0.0000 C   0  0
  2  1  1  0
  3  1  1  0
  4  3  1  0
  5  2  1  0
  6  8  1  0
  7  6  2  0
  8  4  1  0
  9  5  2  0
 10  4  2  0
 11  7  1  0
 12  1  1  0
 13  1  1  0
 14  7  1  0
 15  9  1  0
 16  9  1  0
 17 11  1  0
 18 11  2  0
 19 17  2  0
 20 18  1  0
 21 20  2  0
  3  2  1  0
 21 19  1  0
M  END
> <COMPOUND_ID>
DNDI1417137

$$$$

  SciTegic04051205032D

 21 22  0  0  0  0            999 V2000
    6.2175   -9.8946    0.0000 C   0  0
    6.2175  -10.7110    0.0000 N   0  0
    6.9228   -9.4757    0.0000 C   0  0
    5.4950   -9.4885    0.0000 N   0  0
    6.9228   -8.6678    0.0000 C   0  0
    7.6538   -8.2531    0.0000 C   0  0
    6.2175   -8.2531    0.0000 C   0  0
    6.9228   -7.0176    0.0000 C   0  0
    6.9228  -11.1172    0.0000 C   0  0
    6.2175   -7.4152    0.0000 C   0  0
    7.6538   -7.4152    0.0000 C   0  0
    6.9228   -6.2140    0.0000 C   0  0
    7.6538   -9.8818    0.0000 C   0  0
    6.2175   -5.7951    0.0000 C   0  0
    6.9143  -11.9465    0.0000 C   0  0
    7.6410  -10.7110    0.0000 C   0  0
    5.4950   -6.2140    0.0000 C   0  0
    6.2175   -5.0000    0.0000 C   0  0
    7.6325  -12.3740    0.0000 C   0  0
    8.3720  -11.1386    0.0000 C   0  0
    8.3506  -11.9764    0.0000 C   0  0
  2  1  1  0
  3  1  1  0
  4  1  2  0
  5  3  1  0
  6  5  1  0
  7  5  2  0
  8 10  2  0
  9  2  1  0
 10  7  1  0
 11  6  2  0
 12  8  1  0
 13  3  1  0
 14 12  1  0
 15  9  1  0
 16  9  1  0
 17 14  1  0
 18 14  1  0
 19 15  1  0
 20 16  1  0
 21 20  1  0
  8 11  1  0
 21 19  1  0
M  END
> <COMPOUND_ID>
DNDI1417138

$$$$

  SciTegic04051205032D

 17 18  0  0  0  0            999 V2000
    7.1114   -5.9775    0.0000 C   0  0
    7.8276   -6.3726    0.0000 N   0  0
    7.0318   -5.1648    0.0000 N   0  0
    7.8446   -7.2023    0.0000 C   0  0
    6.3811   -6.3356    0.0000 S   0  0
    8.5636   -7.6201    0.0000 C   0  0
    6.2191   -5.0000    0.0000 C   0  0
    5.8184   -5.7246    0.0000 C   0  0
    9.9845   -7.6030    0.0000 C   0  0
    9.2627   -7.2023    0.0000 C   0  0
    9.9845   -8.4385    0.0000 C   0  0
    7.1285   -7.6201    0.0000 O   0  0
    8.5636   -8.4385    0.0000 C   0  0
    9.2627   -8.8392    0.0000 C   0  0
   10.7035   -7.1711    0.0000 Cl  0  0
   10.7035   -8.8648    0.0000 Cl  0  0
    5.0000   -5.8184    0.0000 C   0  0
  2  1  1  0
  3  1  2  0
  4  2  1  0
  5  1  1  0
  6  4  1  0
  7  3  1  0
  8  5  1  0
  9 10  2  0
 10  6  1  0
 11 14  2  0
 12  4  2  0
 13  6  2  0
 14 13  1  0
 15  9  1  0
 16 11  1  0
 17  8  1  0
  7  8  2  0
 11  9  1  0
M  END
> <COMPOUND_ID>
DNDI1417139

$$$$

  SciTegic04051205032D

 21 22  0  0  0  0            999 V2000
    7.1248   -5.8332    0.0000 C   0  0
    6.4248   -9.5453    0.0000 N   0  0
    7.1206   -5.0000    0.0000 O   0  0
    6.4123   -6.2499    0.0000 C   0  0
    6.4206   -8.7204    0.0000 C   0  0
    6.4123   -7.0748    0.0000 C   0  0
    5.7124  -12.4367    0.0000 C   0  0
    5.7082   -9.9578    0.0000 C   0  0
    5.7124  -10.7827    0.0000 C   0  0
    7.8372   -6.2374    0.0000 O   0  0
    5.7124  -13.2616    0.0000 F   0  0
    7.1373   -8.3080    0.0000 C   0  0
    5.7082   -8.3122    0.0000 C   0  0
    5.0000  -12.0242    0.0000 C   0  0
    6.4248  -12.0242    0.0000 C   0  0
    5.6999   -7.4955    0.0000 C   0  0
    7.1331   -7.4872    0.0000 C   0  0
    5.0000  -11.1951    0.0000 C   0  0
    6.4248  -11.1951    0.0000 C   0  0
    7.8455   -7.0623    0.0000 C   0  0
    8.5621   -7.4747    0.0000 C   0  0
  2  5  1  0
  3  1  2  0
  4  1  1  0
  5 12  2  0
  6  4  1  0
  7 15  2  0
  8  2  1  0
  9  8  1  0
 10  1  1  0
 11  7  1  0
 12 17  1  0
 13 16  2  0
 14 18  2  0
 15 19  1  0
 16  6  1  0
 17  6  2  0
 18  9  1  0
 19  9  2  0
 20 10  1  0
 21 20  1  0
  5 13  1  0
  7 14  1  0
M  END
> <COMPOUND_ID>
DNDI1417140

$$$$

  SciTegic04051205032D

 21 22  0  0  0  0            999 V2000
    9.4913   -6.5843    0.0000 N   0  0
   10.1995   -6.1848    0.0000 C   0  0
    7.9978   -6.6342    0.0000 C   0  0
    8.7831   -6.1848    0.0000 O   0  0
    7.2896   -6.2166    0.0000 C   0  0
   10.9076   -6.5843    0.0000 C   0  0
    6.5814   -6.6342    0.0000 C   0  0
    7.9841   -7.5241    0.0000 O   0  0
   11.6158   -6.1848    0.0000 C   0  0
   10.9076   -7.4015    0.0000 C   0  0
   10.1995   -5.3677    0.0000 N   0  0
    5.8732   -6.2030    0.0000 C   0  0
   12.3240   -7.4015    0.0000 C   0  0
   12.3240   -6.5843    0.0000 C   0  0
   11.6158   -7.8191    0.0000 C   0  0
    5.1650   -6.6206    0.0000 F   0  0
   13.0322   -7.8191    0.0000 O   0  0
    7.2896   -5.3995    0.0000 C   0  0
    6.5950   -5.0000    0.0000 C   0  0
    5.8732   -5.3859    0.0000 C   0  0
   13.7404   -7.4015    0.0000 C   0  0
  2  1  2  0
  3  4  1  0
  4  1  1  0
  5  3  1  0
  6  2  1  0
  7  5  1  0
  8  3  2  0
  9  6  2  0
 10  6  1  0
 11  2  1  0
 12  7  2  0
 13 15  1  0
 14  9  1  0
 15 10  2  0
 16 12  1  0
 17 13  1  0
 18  5  2  0
 19 18  1  0
 20 19  2  0
 21 17  1  0
 13 14  2  0
 20 12  1  0
M  END
> <COMPOUND_ID>
DNDI1417141

$$$$

  SciTegic04051205032D

 21 22  0  0  0  0            999 V2000
    5.8938   -6.2354    0.0000 C   0  0
    6.6087   -5.8259    0.0000 N   0  0
    5.8938   -7.0683    0.0000 N   0  0
    7.3131   -6.2354    0.0000 C   0  0
    7.3131   -7.0683    0.0000 C   0  0
    6.6087   -7.4778    0.0000 C   0  0
    8.0281   -5.8259    0.0000 O   0  0
    5.1650   -5.8190    0.0000 O   0  0
    6.6087   -8.3003    0.0000 O   0  0
   10.8876   -7.4778    0.0000 C   0  0
   10.1728   -7.0683    0.0000 C   0  0
   10.8876   -8.3003    0.0000 O   0  0
    6.6087   -5.0000    0.0000 C   0  0
    5.1650   -7.4917    0.0000 C   0  0
   10.1728   -6.2354    0.0000 C   0  0
    9.4613   -7.4778    0.0000 C   0  0
    8.7533   -6.2354    0.0000 C   0  0
    8.7533   -7.0683    0.0000 C   0  0
    9.4613   -5.8259    0.0000 C   0  0
   11.5991   -7.0683    0.0000 C   0  0
   12.2966   -7.4778    0.0000 C   0  0
  2  1  1  0
  3  1  1  0
  4  2  1  0
  5  6  1  0
  6  3  1  0
  7  4  1  0
  8  1  2  0
  9  6  2  0
 10 11  1  0
 11 16  1  0
 12 10  2  0
 13  2  1  0
 14  3  1  0
 15 19  1  0
 16 18  2  0
 17  7  1  0
 18 17  1  0
 19 17  2  0
 20 10  1  0
 21 20  1  0
  5  4  2  0
 11 15  2  0
M  END
> <COMPOUND_ID>
DNDI1417142

$$$$

  SciTegic04051205032D

 22 24  0  0  0  0            999 V2000
    7.1720  -10.3959    0.0000 N   0  3
    6.4419   -9.9924    0.0000 C   0  0
    6.4419   -9.1444    0.0000 C   0  0
    7.1720   -7.9065    0.0000 C   0  0
    7.8839   -7.4894    0.0000 C   0  0
    7.1720   -8.7273    0.0000 C   0  0
    7.8839   -9.9606    0.0000 C   0  0
    7.8839   -6.6732    0.0000 C   0  0
    7.8839   -9.1626    0.0000 C   0  0
    8.6049   -6.2515    0.0000 C   0  0
    7.8793  -11.6384    0.0000 C   0  0
    7.1720  -11.2257    0.0000 C   0  0
    7.8793  -12.4410    0.0000 C   0  0
    9.3122   -6.6550    0.0000 O   0  0
    5.7210  -10.3959    0.0000 C   0  0
    5.7210   -8.7273    0.0000 C   0  0
    7.1901   -6.2379    0.0000 C   0  0
    8.6049   -5.4353    0.0000 C   0  0
    5.0000   -9.9606    0.0000 C   0  0
    5.0000   -9.1626    0.0000 C   0  0
    7.8839   -5.0000    0.0000 C   0  0
    7.1901   -5.4217    0.0000 C   0  0
  2  1  2  0
  3  2  1  0
  4  6  1  0
  5  4  2  0
  6  9  1  0
  7  1  1  0
  8  5  1  0
  9  7  2  0
 10  8  2  0
 11 12  1  0
 12  1  1  0
 13 11  2  0
 14 10  1  0
 15  2  1  0
 16  3  1  0
 17  8  1  0
 18 10  1  0
 19 15  2  0
 20 19  1  0
 21 22  1  0
 22 17  2  0
  3  6  2  0
 20 16  2  0
 18 21  2  0
M  CHG  1   1   1
M  END
> <COMPOUND_ID>
DNDI1417143

$$$$

  SciTegic04051205032D

 20 21  0  0  0  0            999 V2000
    9.0565   -6.6676    0.0000 N   0  0
    7.8181   -5.9594    0.0000 C   0  0
   10.2949   -7.3796    0.0000 C   0  0
    8.2233   -6.6676    0.0000 N   0  0
    9.4769   -7.3796    0.0000 C   0  0
    6.9849   -5.9594    0.0000 C   0  0
   10.7114   -6.6676    0.0000 C   0  0
    8.2233   -5.2475    0.0000 O   0  0
    6.5873   -6.6676    0.0000 C   0  0
    5.7504   -6.6676    0.0000 C   0  0
    5.3300   -7.3948    0.0000 Cl  0  0
   10.2721   -5.9405    0.0000 O   0  0
   10.7114   -8.0878    0.0000 C   0  0
    6.5873   -5.2475    0.0000 C   0  0
    5.7504   -5.2475    0.0000 C   0  0
    9.0565   -8.0878    0.0000 C   0  0
   11.5294   -6.6676    0.0000 C   0  0
    5.3489   -5.9594    0.0000 C   0  0
   11.5294   -8.0878    0.0000 C   0  0
   11.9498   -7.3796    0.0000 C   0  0
  2  4  1  0
  3  5  1  0
  4  1  1  0
  5  1  2  0
  6  2  1  0
  7  3  1  0
  8  2  2  0
  9  6  2  0
 10  9  1  0
 11 10  1  0
 12  7  1  0
 13  3  2  0
 14  6  1  0
 15 14  2  0
 16  5  1  0
 17  7  2  0
 18 15  1  0
 19 13  1  0
 20 19  2  0
 17 20  1  0
 18 10  2  0
M  END
> <COMPOUND_ID>
DNDI1417144

$$$$

  SciTegic04051205032D

 20 21  0  0  0  0            999 V2000
    9.6402   -6.8799    0.0000 C   0  0
   11.0579   -6.8799    0.0000 N   0  0
   10.3419   -6.5005    0.0000 N   0  0
    9.6402   -7.7248    0.0000 O   0  0
   13.9146   -6.9301    0.0000 N   0  0
    8.2011   -6.8799    0.0000 N   0  0
   11.7739   -6.5005    0.0000 C   0  0
    8.9242   -6.5005    0.0000 C   0  0
   12.4684   -6.9086    0.0000 C   0  0
    7.4851   -6.5005    0.0000 C   0  0
    6.0412   -5.6556    0.0000 C   0  0
    5.3300   -5.2475    0.0000 Cl  0  0
    6.7620   -6.8799    0.0000 C   0  0
    7.4851   -5.6556    0.0000 C   0  0
    6.7620   -5.2475    0.0000 C   0  0
    6.0412   -6.5005    0.0000 C   0  0
   13.2058   -6.5220    0.0000 C   0  0
   13.9146   -7.7749    0.0000 C   0  0
   12.4684   -7.7535    0.0000 C   0  0
   13.1700   -8.1902    0.0000 C   0  0
  2  3  1  0
  3  1  1  0
  4  1  2  0
  5 17  2  0
  6  8  1  0
  7  2  2  0
  8  1  1  0
  9  7  1  0
 10  6  1  0
 11 15  1  0
 12 11  1  0
 13 10  2  0
 14 10  1  0
 15 14  2  0
 16 13  1  0
 17  9  1  0
 18 20  2  0
 19  9  2  0
 20 19  1  0
 16 11  2  0
 18  5  1  0
M  END
> <COMPOUND_ID>
DNDI1417145

$$$$

  SciTegic04051205032D

 20 21  0  0  0  0            999 V2000
    8.7380   -6.4760    0.0000 C   0  0
   10.1747   -6.4801    0.0000 N   0  0
    8.0217   -6.8924    0.0000 N   0  0
   10.8868   -7.7169    0.0000 C   0  0
    8.7380   -5.6473    0.0000 S   0  0
    9.4584   -6.8924    0.0000 N   0  0
   11.5989   -8.1251    0.0000 C   0  0
   10.8868   -6.8966    0.0000 C   0  0
    7.3054   -6.4801    0.0000 C   0  0
    5.8812   -5.6598    0.0000 C   0  0
    5.1650   -5.2475    0.0000 F   0  0
   12.3068   -7.7086    0.0000 O   0  0
    6.6017   -6.8966    0.0000 C   0  0
    7.3096   -5.6556    0.0000 C   0  0
    6.5975   -5.2475    0.0000 C   0  0
    5.8854   -6.4885    0.0000 C   0  0
   10.1705   -8.1251    0.0000 C   0  0
   11.5989   -8.9496    0.0000 C   0  0
   10.1663   -8.9496    0.0000 C   0  0
   10.8784   -9.3619    0.0000 C   0  0
  2  6  1  0
  3  1  1  0
  4  8  1  0
  5  1  2  0
  6  1  1  0
  7  4  1  0
  8  2  2  0
  9  3  1  0
 10 16  1  0
 11 10  1  0
 12  7  1  0
 13  9  1  0
 14  9  2  0
 15 14  1  0
 16 13  2  0
 17  4  2  0
 18  7  2  0
 19 17  1  0
 20 19  2  0
 10 15  2  0
 20 18  1  0
M  END
> <COMPOUND_ID>
DNDI1417146

$$$$

  SciTegic04051205032D

 22 24  0  0  0  0            999 V2000
    7.7604   -6.8538    0.0000 C   0  0
    9.1320   -6.3920    0.0000 N   0  0
    6.9455   -6.6772    0.0000 C   0  0
    8.3172   -6.2256    0.0000 N   0  0
    9.6651   -5.7741    0.0000 C   0  0
    6.3717   -7.2442    0.0000 C   0  0
   10.4800   -5.9234    0.0000 C   0  0
   10.7482   -6.7214    0.0000 N   0  0
    8.0320   -7.6347    0.0000 O   0  0
    5.5737   -7.0405    0.0000 C   0  0
    6.7214   -5.8793    0.0000 C   0  0
    6.5992   -8.0421    0.0000 C   0  0
    9.3969   -5.0000    0.0000 C   0  0
    5.9201   -5.6518    0.0000 C   0  0
   11.5461   -6.8538    0.0000 C   0  0
    5.3497   -6.2460    0.0000 C   0  0
   10.9960   -5.3055    0.0000 C   0  0
    5.0000   -7.6347    0.0000 C   0  0
    6.0253   -8.6363    0.0000 C   0  0
   12.0792   -6.2086    0.0000 C   0  0
   11.8109   -5.4481    0.0000 C   0  0
    5.2037   -8.4122    0.0000 C   0  0
  2  4  1  0
  3  1  1  0
  4  1  1  0
  5  2  2  0
  6  3  1  0
  7  5  1  0
  8  7  1  0
  9  1  2  0
 10  6  2  0
 11  3  2  0
 12  6  1  0
 13  5  1  0
 14 11  1  0
 15  8  2  0
 16 14  2  0
 17  7  2  0
 18 10  1  0
 19 12  2  0
 20 15  1  0
 21 17  1  0
 22 19  1  0
 16 10  1  0
 22 18  2  0
 20 21  2  0
M  END
> <COMPOUND_ID>
DNDI1417147

$$$$

  SciTegic04051205032D

 22 25  0  0  0  0            999 V2000
    6.5897   -7.8837    0.0000 C   0  0
    7.3815   -7.7912    0.0000 C   0  0
    6.4234   -8.6785    0.0000 C   0  0
    7.7235   -8.5368    0.0000 C   0  0
    7.1166   -9.0852    0.0000 C   0  0
    6.0629   -7.2890    0.0000 C   0  0
    6.3309   -6.5158    0.0000 C   0  0
    7.1166   -9.9047    0.0000 C   0  0
    7.7913   -7.0487    0.0000 O   0  0
    5.2680   -7.4308    0.0000 N   0  0
    5.7024   -9.0852    0.0000 C   0  0
    8.4906   -8.7710    0.0000 C   0  0
    5.7024   -9.9047    0.0000 C   0  0
    8.5184   -9.9047    0.0000 C   0  0
    6.4234  -10.3145    0.0000 C   0  0
    7.8190  -10.3145    0.0000 C   0  0
    7.1166   -6.3740    0.0000 C   0  0
    5.7949   -5.9150    0.0000 C   0  0
    5.0000   -8.1887    0.0000 C   0  0
    7.3815   -5.6007    0.0000 C   0  0
    6.0629   -5.1447    0.0000 C   0  0
    6.8547   -5.0000    0.0000 C   0  0
  2  1  1  0
  3  1  1  0
  4  2  1  0
  5  3  1  0
  6  1  1  0
  7  6  1  0
  8  5  1  0
  9  2  1  0
 10  6  1  0
 11  3  2  0
 12  4  1  0
 13 11  1  0
 14 12  2  0
 15 13  2  0
 16  8  2  0
 17  7  2  0
 18  7  1  0
 19 10  1  0
 20 17  1  0
 21 18  2  0
 22 21  1  0
  5  4  2  0
  8 15  1  0
 16 14  1  0
 20 22  2  0
M  END
> <COMPOUND_ID>
DNDI1417148

$$$$

  SciTegic04051205032D

 22 24  0  0  0  0            999 V2000
    7.1553  -11.6028    0.0000 N   0  3
    6.4430  -11.1872    0.0000 C   0  0
    6.4430  -10.3562    0.0000 C   0  0
    7.1553   -9.1233    0.0000 C   0  0
    7.1553   -9.9589    0.0000 C   0  0
    7.8676   -8.7123    0.0000 C   0  0
    7.8676  -11.1872    0.0000 C   0  0
    7.8676   -6.2329    0.0000 C   0  0
    7.8676   -5.4246    0.0000 N   0  0
    7.8676  -10.3562    0.0000 C   0  0
    7.1553   -6.6575    0.0000 C   0  0
    8.5663   -6.6438    0.0000 C   0  0
    7.8676   -7.8904    0.0000 C   0  0
    7.1553  -12.4384    0.0000 C   0  0
    7.1553   -7.4748    0.0000 C   0  0
    8.5800   -7.4748    0.0000 C   0  0
    5.7169  -11.6028    0.0000 C   0  0
    5.7306   -9.9406    0.0000 C   0  0
    8.5800   -5.0000    0.0000 C   0  0
    7.1553   -5.0411    0.0000 C   0  0
    5.0000  -11.1872    0.0000 C   0  0
    5.0046  -10.3562    0.0000 C   0  0
  2  1  2  0
  3  2  1  0
  4  5  1  0
  5 10  1  0
  6  4  2  0
  7  1  1  0
  8 12  2  0
  9  8  1  0
 10  7  2  0
 11 15  2  0
 12 16  1  0
 13  6  1  0
 14  1  1  0
 15 13  1  0
 16 13  2  0
 17  2  1  0
 18  3  1  0
 19  9  1  0
 20  9  1  0
 21 17  2  0
 22 21  1  0
  5  3  2  0
 22 18  2  0
  8 11  1  0
M  CHG  1   1   1
M  END
> <COMPOUND_ID>
DNDI1417149

$$$$

  SciTegic04051205032D

 22 24  0  0  0  0            999 V2000
    6.4249   -7.4768    0.0000 C   0  0
    6.4249   -6.6484    0.0000 C   0  0
    7.1415   -7.8869    0.0000 C   0  0
    5.7125   -6.2384    0.0000 C   0  0
    7.8622   -7.4768    0.0000 N   0  0
    5.7125   -7.8911    0.0000 C   0  0
    8.5539  -11.1840    0.0000 C   0  0
    7.1415   -6.2384    0.0000 C   0  0
    5.0000   -7.4768    0.0000 C   0  0
    5.0000   -6.6484    0.0000 C   0  0
    7.1415   -8.7153    0.0000 C   0  0
    5.7125   -5.4183    0.0000 C   0  0
    8.5580  -10.3597    0.0000 C   0  0
    7.8373  -11.5816    0.0000 C   0  0
    9.2705  -11.5816    0.0000 C   0  0
    7.8539   -9.1212    0.0000 C   0  0
    7.8539   -9.9414    0.0000 C   0  0
    7.1415   -5.4183    0.0000 C   0  0
    6.4249   -5.0000    0.0000 C   0  0
    7.8291  -12.4141    0.0000 C   0  0
    9.2705  -12.4141    0.0000 C   0  0
    8.5456  -12.8242    0.0000 C   0  0
  2  1  1  0
  3  1  1  0
  4  2  1  0
  5  3  1  0
  6  1  2  0
  7 13  1  0
  8  2  2  0
  9  6  1  0
 10  9  2  0
 11  3  1  0
 12  4  2  0
 13 17  1  0
 14  7  2  0
 15  7  1  0
 16 11  1  0
 17 16  1  0
 18  8  1  0
 19 18  2  0
 20 14  1  0
 21 15  2  0
 22 21  1  0
 10  4  1  0
 19 12  1  0
 22 20  2  0
M  END
> <COMPOUND_ID>
DNDI1417150

$$$$

  SciTegic04051205032D

 20 21  0  0  0  0            999 V2000
   10.3686   -6.1960    0.0000 C   0  0
    9.6640   -6.6119    0.0000 N   0  0
    8.1552   -6.6462    0.0000 C   0  0
   11.0731   -6.6119    0.0000 C   0  0
    7.4506   -6.2441    0.0000 C   0  0
    8.9457   -6.1960    0.0000 O   0  0
    6.0346   -6.2304    0.0000 C   0  0
    6.7460   -6.6462    0.0000 C   0  0
    6.0381   -5.4159    0.0000 C   0  0
    8.1518   -7.5399    0.0000 O   0  0
   12.4892   -6.6119    0.0000 N   0  0
    7.4506   -5.4159    0.0000 C   0  0
    6.7460   -5.0138    0.0000 C   0  0
   10.3686   -5.3849    0.0000 N   0  0
    5.3300   -6.6462    0.0000 Cl  0  0
   11.7846   -6.2098    0.0000 C   0  0
   11.0731   -7.4196    0.0000 C   0  0
   12.4892   -7.4196    0.0000 C   0  0
    5.3335   -5.0000    0.0000 C   0  0
   11.7846   -7.8423    0.0000 C   0  0
  2  1  2  0
  3  6  1  0
  4  1  1  0
  5  3  1  0
  6  2  1  0
  7  8  2  0
  8  5  1  0
  9 13  2  0
 10  3  2  0
 11 16  1  0
 12  5  2  0
 13 12  1  0
 14  1  1  0
 15  7  1  0
 16  4  2  0
 17  4  1  0
 18 20  1  0
 19  9  1  0
 20 17  2  0
 18 11  2  0
  9  7  1  0
M  END
> <COMPOUND_ID>
DNDI1417151

$$$$

  SciTegic04051205032D

 22 24  0  0  0  0            999 V2000
    8.5727   -6.4933    0.0000 C   0  0
    7.8444   -6.8964    0.0000 N   0  0
    8.5727   -5.6688    0.0000 N   0  0
    7.1436   -6.4933    0.0000 C   0  0
    7.8444   -5.2475    0.0000 N   0  0
   11.4308   -8.1422    0.0000 N   0  0
   10.0017   -6.4933    0.0000 N   0  0
    9.2872   -6.9101    0.0000 N   0  0
   10.7162   -6.9101    0.0000 C   0  0
    7.1436   -5.6688    0.0000 C   0  0
    6.4291   -6.8964    0.0000 C   0  0
   10.7162   -7.7346    0.0000 C   0  0
   11.4308   -8.9667    0.0000 C   0  0
   10.0017   -8.9667    0.0000 C   0  0
   10.0017   -8.1422    0.0000 C   0  0
    5.7145   -6.4933    0.0000 C   0  0
    6.4291   -7.7208    0.0000 C   0  0
   10.7162   -9.3835    0.0000 C   0  0
   12.1453   -9.3835    0.0000 C   0  0
    5.7145   -8.1422    0.0000 C   0  0
    5.0000   -6.8964    0.0000 C   0  0
    5.0000   -7.7208    0.0000 C   0  0
  2  1  1  0
  3  1  2  0
  4  2  2  0
  5  3  1  0
  6 12  2  0
  7  8  1  0
  8  1  1  0
  9  7  2  0
 10  5  2  0
 11  4  1  0
 12  9  1  0
 13  6  1  0
 14 15  2  0
 15 12  1  0
 16 11  1  0
 17 11  2  0
 18 14  1  0
 19 13  1  0
 20 17  1  0
 21 16  2  0
 22 20  2  0
  4 10  1  0
 22 21  1  0
 13 18  2  0
M  END
> <COMPOUND_ID>
DNDI1417152

$$$$

  SciTegic04051205032D

 22 25  0  0  0  0            999 V2000
    8.9693   -6.3001    0.0000 N   0  0
    8.2676   -5.8598    0.0000 C   0  0
    8.9555   -7.1256    0.0000 N   0  0
    8.2264   -7.5143    0.0000 C   0  0
    9.6056   -5.7636    0.0000 N   0  0
    9.2892   -5.0000    0.0000 N   0  0
    8.4637   -5.0619    0.0000 N   0  0
    7.5453   -6.2622    0.0000 C   0  0
    7.5247   -7.0877    0.0000 C   0  0
    8.2057   -8.3432    0.0000 N   0  0
    7.4009   -8.5393    0.0000 C   0  0
    7.1704   -9.3338    0.0000 C   0  0
    6.3690   -9.5264    0.0000 C   0  0
    6.8367   -7.9408    0.0000 C   0  0
    5.8049   -8.9279    0.0000 C   0  0
    6.0388   -8.1369    0.0000 C   0  0
    6.8437   -5.8358    0.0000 C   0  0
    6.8058   -7.4868    0.0000 C   0  0
    7.7414   -9.9220    0.0000 C   0  0
    5.0000   -9.1171    0.0000 C   0  0
    6.1214   -6.2313    0.0000 C   0  0
    6.1041   -7.0568    0.0000 C   0  0
  2  1  1  0
  3  1  1  0
  4  3  2  0
  5  1  1  0
  6  5  2  0
  7  2  2  0
  8  2  1  0
  9  4  1  0
 10  4  1  0
 11 10  1  0
 12 11  2  0
 13 12  1  0
 14 11  1  0
 15 16  1  0
 16 14  2  0
 17  8  1  0
 18  9  1  0
 19 12  1  0
 20 15  1  0
 21 17  2  0
 22 18  2  0
  7  6  1  0
  9  8  2  0
 22 21  1  0
 13 15  2  0
M  END
> <COMPOUND_ID>
DNDI1417153

$$$$

  SciTegic04051205032D

 22 24  0  0  0  0            999 V2000
    6.1197   -5.8958    0.0000 N   0  0
    6.9399   -5.7642    0.0000 C   0  0
    5.8230   -6.6544    0.0000 C   0  0
    7.4550   -6.4052    0.0000 C   0  0
    6.3324   -7.3122    0.0000 N   0  0
   10.8730   -6.1001    0.0000 C   0  0
    7.1583   -7.1806    0.0000 C   0  0
    8.2416   -6.2121    0.0000 C   0  0
   10.2319   -6.6348    0.0000 C   0  0
   11.6540   -6.3492    0.0000 C   0  0
    7.2394   -5.0000    0.0000 N   0  0
    5.0000   -6.7747    0.0000 N   0  0
    9.4649   -6.3492    0.0000 C   0  0
    8.8014   -6.8139    0.0000 C   0  0
   10.7274   -5.2911    0.0000 C   0  0
    9.9632   -5.0140    0.0000 C   0  0
   11.8359   -7.1610    0.0000 C   0  0
   12.2726   -5.7950    0.0000 C   0  0
    9.3221   -5.5318    0.0000 C   0  0
   13.0564   -6.0413    0.0000 C   0  0
   12.6253   -7.4102    0.0000 C   0  0
   13.2439   -6.8531    0.0000 C   0  0
  2  1  2  0
  3  1  1  0
  4  2  1  0
  5  3  2  0
  6  9  2  0
  7  5  1  0
  8  4  1  0
  9 13  1  0
 10  6  1  0
 11  2  1  0
 12  3  1  0
 13 14  1  0
 14  8  1  0
 15 16  2  0
 16 19  1  0
 17 10  1  0
 18 10  2  0
 19 13  2  0
 20 18  1  0
 21 17  2  0
 22 20  2  0
  7  4  2  0
 15  6  1  0
 22 21  1  0
M  END
> <COMPOUND_ID>
DNDI1417154

$$$$

  SciTegic04051205032D

 20 21  0  0  0  0            999 V2000
    5.7107   -6.6500    0.0000 C   0  0
    5.7107   -7.4770    0.0000 C   0  0
    6.4256   -6.2344    0.0000 C   0  0
    5.0416   -7.9675    0.0000 O   0  0
    7.1446   -6.6500    0.0000 C   0  0
    7.8552   -6.2344    0.0000 C   0  0
    6.3757   -7.9675    0.0000 C   0  0
    5.2992   -8.7530    0.0000 C   0  0
    5.0000   -6.2344    0.0000 O   0  0
    6.1388   -8.7447    0.0000 C   0  0
    8.5701   -6.6500    0.0000 C   0  0
    7.8552   -5.4198    0.0000 C   0  0
    7.1446   -7.4770    0.0000 S   0  0
    8.5577   -5.0000    0.0000 C   0  0
    9.2808   -6.2344    0.0000 C   0  0
    9.2808   -5.4115    0.0000 C   0  0
    9.2891   -7.8844    0.0000 O   0  0
    7.8594   -7.8927    0.0000 C   0  0
    8.5826   -7.4770    0.0000 C   0  0
    9.9873   -5.0000    0.0000 C   0  0
  2  1  1  0
  3  1  1  0
  4  2  1  0
  5  3  1  0
  6  5  1  0
  7  2  2  0
  8  4  1  0
  9  1  2  0
 10  7  1  0
 11  6  2  0
 12  6  1  0
 13  5  1  0
 14 12  2  0
 15 11  1  0
 16 14  1  0
 17 19  1  0
 18 13  1  0
 19 18  1  0
 20 16  1  0
  8 10  2  0
 16 15  2  0
M  END
> <COMPOUND_ID>
DNDI1417155

$$$$

  SciTegic04051205032D

 22 24  0  0  0  0            999 V2000
    8.4493   -6.1890    0.0000 C   0  0
    7.7462   -6.5866    0.0000 N   0  0
    9.1119   -6.5866    0.0000 C   0  0
    8.4493   -5.3902    0.0000 N   0  0
    7.0615   -5.3902    0.0000 C   0  0
    7.0615   -6.1890    0.0000 C   0  0
    9.8151   -6.1890    0.0000 C   0  0
    9.1119   -7.3707    0.0000 C   0  0
    9.1119   -8.1732    0.0000 N   0  0
   11.8986   -6.6087    0.0000 C   0  0
   10.4924   -6.6087    0.0000 C   0  0
    6.3657   -5.0000    0.0000 C   0  0
   11.8986   -7.4186    0.0000 C   0  0
   11.1955   -6.2185    0.0000 C   0  0
    6.3657   -6.5866    0.0000 C   0  0
   11.1955   -7.8308    0.0000 C   0  0
    5.7031   -5.3902    0.0000 C   0  0
   10.4924   -7.4186    0.0000 C   0  0
   12.5981   -6.1853    0.0000 O   0  0
    5.7031   -6.1890    0.0000 C   0  0
   12.6165   -7.8383    0.0000 O   0  0
    5.0000   -5.0000    0.0000 C   0  0
  2  1  2  0
  3  1  1  0
  4  1  1  0
  5  4  1  0
  6  2  1  0
  7  3  2  0
  8  3  1  0
  9  8  3  0
 10 14  2  0
 11  7  1  0
 12  5  1  0
 13 16  2  0
 14 11  1  0
 15  6  1  0
 16 18  1  0
 17 12  2  0
 18 11  2  0
 19 10  1  0
 20 15  2  0
 21 13  1  0
 22 17  1  0
  6  5  2  0
 20 17  1  0
 13 10  1  0
M  END
> <COMPOUND_ID>
DNDI1417156

$$$$

  SciTegic04051205032D

 22 24  0  0  0  0            999 V2000
    7.1316   -6.2363    0.0000 C   0  0
    7.8457   -6.6520    0.0000 N   0  0
    9.2792   -6.6520    0.0000 C   0  0
    9.9898   -6.2363    0.0000 C   0  0
   10.7074   -6.6520    0.0000 C   0  0
    8.5651   -6.2363    0.0000 O   0  0
    6.4175   -6.6520    0.0000 C   0  0
    5.7034   -6.2363    0.0000 N   0  0
    9.2792   -7.4780    0.0000 O   0  0
    7.1316   -5.4103    0.0000 N   0  0
   11.4215   -6.2363    0.0000 C   0  0
    9.9898   -5.4103    0.0000 C   0  0
   10.7074   -7.4780    0.0000 C   0  0
   10.7074   -5.0000    0.0000 C   0  0
    5.0000   -6.6520    0.0000 C   0  0
   11.4215   -5.4103    0.0000 C   0  0
    6.4175   -7.4780    0.0000 C   0  0
   12.1409   -6.6520    0.0000 C   0  0
   11.4215   -7.8830    0.0000 C   0  0
    5.0000   -7.4780    0.0000 C   0  0
    5.7034   -7.8830    0.0000 C   0  0
   12.1409   -7.4780    0.0000 C   0  0
  2  1  2  0
  3  6  1  0
  4  3  1  0
  5  4  1  0
  6  2  1  0
  7  1  1  0
  8  7  1  0
  9  3  2  0
 10  1  1  0
 11  5  1  0
 12  4  2  0
 13  5  2  0
 14 12  1  0
 15  8  2  0
 16 14  2  0
 17  7  2  0
 18 11  2  0
 19 13  1  0
 20 21  2  0
 21 17  1  0
 22 19  2  0
 15 20  1  0
 11 16  1  0
 22 18  1  0
M  END
> <COMPOUND_ID>
DNDI1417157

$$$$

  SciTegic04051205032D

 21 22  0  0  0  0            999 V2000
    7.7610   -6.4473    0.0000 N   0  0
    6.3479   -6.5039    0.0000 N   0  0
    7.0364   -6.0645    0.0000 C   0  0
    7.1110   -7.7114    0.0000 N   0  0
    7.8124   -7.2798    0.0000 C   0  0
    6.3735   -7.3157    0.0000 C   0  0
    6.9979   -5.2475    0.0000 N   0  0
    8.4522   -5.9694    0.0000 O   0  0
    5.6798   -7.7423    0.0000 N   0  0
    8.1207   -8.0403    0.0000 C   0  0
    8.6114   -7.0922    0.0000 C   0  0
   11.9105   -7.1796    0.0000 C   0  0
   10.4922   -6.3291    0.0000 C   0  0
   11.9387   -6.3600    0.0000 C   0  0
   11.1885   -7.5753    0.0000 C   0  0
   11.2271   -5.9309    0.0000 C   0  0
   10.4691   -7.1411    0.0000 C   0  0
    9.1330   -6.4191    0.0000 C   0  0
   12.6016   -7.6189    0.0000 O   0  0
    9.7831   -5.8949    0.0000 C   0  0
   13.2517   -7.1051    0.0000 C   0  0
  2  3  2  0
  3  1  1  0
  4  5  1  0
  5  1  1  0
  6  2  1  0
  7  3  1  0
  8  1  1  0
  9  6  1  0
 10  5  1  0
 11  5  1  0
 12 14  2  0
 13 20  1  0
 14 16  1  0
 15 17  2  0
 16 13  2  0
 17 13  1  0
 18  8  1  0
 19 12  1  0
 20 18  1  0
 21 19  1  0
  6  4  2  0
 12 15  1  0
M  END
> <COMPOUND_ID>
DNDI1417158

$$$$

  SciTegic04051205032D

 22 24  0  0  0  0            999 V2000
    7.6805   -8.0072    0.0000 C   0  0
    7.1988   -8.6732    0.0000 N   0  0
    7.1905   -7.3454    0.0000 C   0  0
    6.4198   -8.4260    0.0000 C   0  0
    6.4157   -7.6093    0.0000 C   0  0
    7.4418   -6.5664    0.0000 C   0  0
    8.4972   -8.0030    0.0000 O   0  0
    8.2376   -6.3947    0.0000 C   0  0
    7.4543   -9.4396    0.0000 C   0  0
    8.4889   -5.6199    0.0000 C   0  0
    6.4869   -6.6837    0.0000 C   0  0
    5.7078   -8.8365    0.0000 C   0  0
    5.7078   -7.1989    0.0000 C   0  0
    9.2971   -5.4398    0.0000 C   0  0
    7.9276   -5.0000    0.0000 C   0  0
    6.9098  -10.0553    0.0000 C   0  0
    8.2543   -9.6030    0.0000 C   0  0
    5.0000   -8.4302    0.0000 C   0  0
    5.0000   -7.6093    0.0000 C   0  0
    7.1696  -10.8259    0.0000 C   0  0
    8.5140  -10.3820    0.0000 C   0  0
    7.9695  -10.9892    0.0000 C   0  0
  2  1  1  0
  3  1  1  0
  4  2  1  0
  5  3  1  0
  6  3  1  0
  7  1  2  0
  8  6  1  0
  9  2  1  0
 10  8  2  0
 11  3  1  0
 12  4  2  0
 13  5  2  0
 14 10  1  0
 15 10  1  0
 16  9  2  0
 17  9  1  0
 18 12  1  0
 19 13  1  0
 20 16  1  0
 21 17  2  0
 22 20  2  0
  5  4  1  0
 19 18  2  0
 22 21  1  0
M  END
> <COMPOUND_ID>
DNDI1417159

$$$$

  SciTegic04051205032D

 19 20  0  0  0  0            999 V2000
    7.2279   -8.0769    0.0000 C   0  0
    7.6883   -8.7564    0.0000 C   0  0
    7.2279   -9.4062    0.0000 N   0  0
    6.4407   -8.3220    0.0000 C   0  0
    6.4407   -9.1611    0.0000 C   0  0
    7.4990   -7.2637    0.0000 N   0  0
    7.1982   -5.8453    0.0000 C   0  0
    6.9271   -6.6325    0.0000 N   0  0
    8.5051   -8.8083    0.0000 O   0  0
    6.6337   -5.2475    0.0000 S   0  0
    7.4990  -10.1711    0.0000 C   0  0
    7.9927   -5.6819    0.0000 S   0  0
    6.9717  -10.7800    0.0000 C   0  0
    7.2427  -11.5561    0.0000 C   0  0
    5.7352   -7.9135    0.0000 C   0  0
    5.7352   -9.5733    0.0000 C   0  0
    8.5349   -6.2797    0.0000 C   0  0
    5.0000   -8.3220    0.0000 C   0  0
    5.0000   -9.1611    0.0000 C   0  0
  2  1  1  0
  3  2  1  0
  4  1  1  0
  5  4  2  0
  6  1  2  0
  7  8  1  0
  8  6  1  0
  9  2  2  0
 10  7  2  0
 11  3  1  0
 12  7  1  0
 13 11  1  0
 14 13  2  0
 15  4  1  0
 16  5  1  0
 17 12  1  0
 18 15  2  0
 19 18  1  0
  3  5  1  0
 19 16  2  0
M  END
> <COMPOUND_ID>
DNDI1417160

$$$$

  SciTegic04051205032D

 21 23  0  0  0  0            999 V2000
    6.9541   -7.9511    0.0000 C   0  0
    6.4313   -6.7513    0.0000 C   0  0
    5.7599   -8.3711    0.0000 C   0  0
    5.5285   -7.8483    0.0000 C   0  0
    6.9883   -7.1169    0.0000 C   0  0
    6.3284   -8.6939    0.0000 C   0  0
    6.2256   -8.3111    0.0000 C   0  0
    5.0000   -8.5682    0.0000 C   0  0
    5.5285   -7.1284    0.0000 C   0  0
    5.8027   -7.5369    0.0000 C   0  0
    7.5768   -7.3998    0.0000 C   0  0
    8.9567   -7.1370    0.0000 N   0  0
    8.3596   -7.6654    0.0000 C   0  0
    9.7480   -7.3855    0.0000 C   0  0
    8.7881   -6.3370    0.0000 C   0  0
   10.3651   -6.8456    0.0000 C   0  0
    8.0311   -6.0628    0.0000 C   0  0
   11.1421   -7.0941    0.0000 C   0  0
    7.8711   -5.2772    0.0000 C   0  0
   11.7707   -6.5770    0.0000 C   0  0
    7.0969   -5.0000    0.0000 C   0  0
  2  5  1  0
  3  6  1  0
  4  7  1  0
  5  1  1  0
  6  1  1  0
  7  1  1  0
  8  4  1  0
  9  4  1  0
 10  3  1  0
 11  1  1  0
 12 13  1  0
 13 11  1  0
 14 12  1  0
 15 12  1  0
 16 14  1  0
 17 15  1  0
 18 16  1  0
 19 17  1  0
 20 18  1  0
 21 19  1  0
  2  9  1  0
  8  3  1  0
  2 10  1  0
M  END
> <COMPOUND_ID>
DNDI1417161

$$$$

  SciTegic04051205032D

 20 21  0  0  0  0            999 V2000
    9.3224   -7.2390    0.0000 C   0  0
    8.7818   -7.8479    0.0000 C   0  0
    7.7442   -6.8813    0.0000 N   0  0
    6.9305   -6.6984    0.0000 C   0  0
    6.3625   -7.2909    0.0000 C   0  0
    5.5761   -7.0888    0.0000 C   0  0
    7.9981   -7.6759    0.0000 O   0  0
    5.8710   -5.7236    0.0000 C   0  0
   10.1334   -7.4001    0.0000 C   0  0
    9.0275   -8.6316    0.0000 O   0  0
    5.3331   -6.3161    0.0000 C   0  0
    6.7011   -5.9092    0.0000 C   0  0
   10.3928   -8.1483    0.0000 Cl  0  0
    9.0631   -6.4444    0.0000 C   0  0
    5.0000   -7.7223    0.0000 C   0  0
    5.0655   -5.5406    0.0000 C   0  0
    6.2997   -5.0000    0.0000 C   0  0
   10.6932   -6.7912    0.0000 C   0  0
    9.6228   -5.8219    0.0000 C   0  0
   10.4365   -6.0048    0.0000 C   0  0
  2  1  1  0
  3  7  1  0
  4  3  2  0
  5  4  1  0
  6  5  2  0
  7  2  1  0
  8 12  1  0
  9  1  1  0
 10  2  2  0
 11  6  1  0
 12  4  1  0
 13  9  1  0
 14  1  2  0
 15  6  1  0
 16  8  1  0
 17  8  1  0
 18  9  2  0
 19 14  1  0
 20 19  2  0
 20 18  1  0
 11  8  1  0
M  END
> <COMPOUND_ID>
DNDI1417162

$$$$

  SciTegic04051205032D

 19 21  0  0  0  0            999 V2000
    7.7738   -6.2037    0.0000 C   0  0
    7.0741   -6.6118    0.0000 C   0  0
    6.3785   -6.2120    0.0000 C   0  0
    6.3744   -5.4041    0.0000 C   0  0
    7.7613   -5.3916    0.0000 C   0  0
    8.4568   -6.5993    0.0000 C   0  0
    9.1523   -6.1912    0.0000 C   0  0
    9.8354   -6.5910    0.0000 C   0  0
   10.5267   -6.1912    0.0000 C   0  0
    9.1523   -5.4041    0.0000 C   0  0
   10.5267   -5.3916    0.0000 C   0  0
    7.0782   -7.4032    0.0000 N   0  0
    9.8354   -7.3865    0.0000 Cl  0  0
    9.8270   -5.0042    0.0000 C   0  0
   11.2139   -5.0000    0.0000 Cl  0  0
    5.6872   -6.6035    0.0000 C   0  0
    5.6872   -5.0125    0.0000 C   0  0
    5.0000   -6.2037    0.0000 C   0  0
    5.0000   -5.4041    0.0000 C   0  0
  2  1  1  0
  3  2  1  0
  4  5  1  0
  5  1  1  0
  6  1  1  0
  7  6  1  0
  8  7  2  0
  9  8  1  0
 10  7  1  0
 11 14  1  0
 12  2  1  0
 13  8  1  0
 14 10  2  0
 15 11  1  0
 16  3  2  0
 17  4  2  0
 18 16  1  0
 19 17  1  0
  4  3  1  0
 19 18  2  0
 11  9  2  0
M  END
> <COMPOUND_ID>
DNDI1417163

$$$$

  SciTegic04051205032D

 22 24  0  0  0  0            999 V2000
    6.5239   -7.2455    0.0000 N   0  0
    5.8460   -7.7119    0.0000 C   0  0
    5.1825   -7.2629    0.0000 N   0  0
    6.2632   -6.4516    0.0000 C   0  0
    7.2744   -7.5265    0.0000 C   0  0
    5.4259   -6.4516    0.0000 C   0  0
    7.9089   -7.0137    0.0000 C   0  0
    5.8460   -8.5348    0.0000 C   0  0
    8.6882   -7.2803    0.0000 C   0  0
    7.7756   -6.2111    0.0000 O   0  0
    6.5385   -9.0418    0.0000 O   0  0
    9.3141   -6.7617    0.0000 C   0  0
    8.8534   -8.0857    0.0000 C   0  0
   10.0993   -7.0137    0.0000 C   0  0
    9.6241   -8.3523    0.0000 C   0  0
   10.2586   -7.8047    0.0000 C   0  0
    6.6833   -5.7186    0.0000 C   0  0
    5.0000   -5.7331    0.0000 C   0  0
    5.1593   -8.9114    0.0000 C   0  0
   11.0409   -8.0335    0.0000 C   0  0
    6.2545   -5.0000    0.0000 C   0  0
    5.4085   -5.0000    0.0000 C   0  0
  2  1  1  0
  3  2  2  0
  4  1  1  0
  5  1  1  0
  6  4  2  0
  7  5  1  0
  8  2  1  0
  9  7  1  0
 10  7  2  0
 11  8  2  0
 12  9  1  0
 13  9  2  0
 14 12  2  0
 15 13  1  0
 16 15  2  0
 17  4  1  0
 18  6  1  0
 19  8  1  0
 20 16  1  0
 21 17  2  0
 22 21  1  0
  3  6  1  0
 22 18  2  0
 16 14  1  0
M  END
> <COMPOUND_ID>
DNDI1417164

$$$$

  SciTegic04051205032D

 22 24  0  0  0  0            999 V2000
    8.5612   -7.0625    0.0000 C   0  0
    9.2728   -7.4750    0.0000 N   0  0
    9.9947   -7.0625    0.0000 C   0  0
    8.5612   -6.2375    0.0000 N   0  0
    7.8462   -7.4750    0.0000 N   0  0
   10.7097   -7.4750    0.0000 C   0  0
   11.4178   -7.0522    0.0000 C   0  0
    7.1347   -7.0625    0.0000 C   0  0
    9.9947   -6.2272    0.0000 C   0  0
   12.1293   -7.4647    0.0000 C   0  0
    9.2728   -5.8147    0.0000 C   0  0
    5.7116   -6.2375    0.0000 C   0  0
   12.8409   -7.0488    0.0000 N   0  0
    6.4231   -7.4750    0.0000 C   0  0
    7.1347   -6.2375    0.0000 C   0  0
    6.4231   -5.8250    0.0000 C   0  0
    5.7116   -7.0659    0.0000 C   0  0
    5.0000   -5.8250    0.0000 O   0  0
   10.7062   -8.3000    0.0000 C   0  0
   11.4212   -8.7022    0.0000 C   0  0
   12.1328   -8.2897    0.0000 C   0  0
    5.0000   -5.0000    0.0000 C   0  0
  2  1  1  0
  3  2  2  0
  4  1  2  0
  5  1  1  0
  6  3  1  0
  7  6  1  0
  8  5  1  0
  9 11  2  0
 10  7  2  0
 11  4  1  0
 12 16  2  0
 13 10  1  0
 14  8  1  0
 15  8  2  0
 16 15  1  0
 17 14  2  0
 18 12  1  0
 19  6  2  0
 20 19  1  0
 21 20  2  0
 22 18  1  0
  9  3  1  0
 12 17  1  0
 10 21  1  0
M  END
> <COMPOUND_ID>
DNDI1417165

$$$$

  SciTegic04051205032D

 22 24  0  0  0  0            999 V2000
    7.1536   -8.3069    0.0000 C   0  0
    6.4417   -9.5752    0.0000 C   0  0
    6.4417   -8.7408    0.0000 C   0  0
    7.1561   -9.9859    0.0000 N   0  0
    7.1536   -7.4828    0.0000 N   0  0
    7.8553   -8.7178    0.0000 C   0  0
    7.1536   -6.6458    0.0000 C   0  0
    7.8655   -9.5547    0.0000 C   0  0
    5.7349   -9.9859    0.0000 C   0  0
    6.4417   -6.2325    0.0000 C   0  0
    5.7196   -8.3069    0.0000 C   0  0
    5.7349  -10.7871    0.0000 O   0  0
    5.0230   -8.7408    0.0000 C   0  0
    7.8553   -6.2325    0.0000 C   0  0
    5.0230   -9.5752    0.0000 C   0  0
    5.7221   -6.6458    0.0000 C   0  0
    8.5902   -9.9502    0.0000 C   0  0
    6.4212   -5.4440    0.0000 C   0  0
    5.0230  -11.1980    0.0000 C   0  0
    5.0000   -6.2325    0.0000 C   0  0
    7.8553   -5.4083    0.0000 C   0  0
    7.1434   -5.0000    0.0000 C   0  0
  2  3  1  0
  3  1  1  0
  4  8  2  0
  5  1  1  0
  6  1  2  0
  7  5  1  0
  8  6  1  0
  9  2  2  0
 10  7  2  0
 11  3  2  0
 12  9  1  0
 13 11  1  0
 14  7  1  0
 15 13  2  0
 16 10  1  0
 17  8  1  0
 18 10  1  0
 19 12  1  0
 20 16  1  0
 21 14  2  0
 22 21  1  0
  4  2  1  0
 15  9  1  0
 22 18  2  0
M  END
> <COMPOUND_ID>
DNDI1417166

$$$$

  SciTegic04051205032D

 21 21  0  0  0  0            999 V2000
    9.5515   -6.7518    0.0000 C   0  0
    8.7066   -6.7518    0.0000 N   0  0
    9.9573   -7.4682    0.0000 C   0  0
    8.3049   -7.4682    0.0000 N   0  0
    9.9573   -6.0394    0.0000 O   0  0
    7.4642   -7.4682    0.0000 C   0  0
   10.3839   -8.1806    0.0000 O   0  0
    5.8324   -7.4682    0.0000 C   0  0
    7.0542   -6.7518    0.0000 C   0  0
    7.0542   -8.1806    0.0000 C   0  0
    6.2342   -8.1806    0.0000 C   0  0
    6.2342   -6.7518    0.0000 C   0  0
   10.6697   -7.0376    0.0000 C   0  0
    9.2409   -7.8700    0.0000 C   0  0
    5.0000   -7.4682    0.0000 C   0  0
   10.6697   -6.2258    0.0000 C   0  0
    9.2409   -8.7149    0.0000 C   0  0
   11.3861   -5.8076    0.0000 C   0  0
    8.5285   -9.1249    0.0000 C   0  0
    8.5285   -9.9407    0.0000 C   0  0
   11.3861   -5.0000    0.0000 C   0  0
  2  1  1  0
  3  1  1  0
  4  2  1  0
  5  1  2  0
  6  4  1  0
  7  3  1  0
  8 11  2  0
  9  6  1  0
 10  6  2  0
 11 10  1  0
 12  9  2  0
 13  3  1  0
 14  3  1  0
 15  8  1  0
 16 13  1  0
 17 14  1  0
 18 16  1  0
 19 17  1  0
 20 19  1  0
 21 18  1  0
 12  8  1  0
M  END
> <COMPOUND_ID>
DNDI1417167

$$$$

  SciTegic04051205032D

 20 21  0  0  0  0            999 V2000
    6.9666   -6.6659    0.0000 C   0  0
    9.4317   -8.0964    0.0000 C   0  0
    8.2072   -7.3812    0.0000 N   0  0
    9.0195   -8.7996    0.0000 C   0  0
    6.5585   -5.9628    0.0000 C   0  0
    6.5423   -7.4013    0.0000 C   0  0
    9.0195   -7.3812    0.0000 N   0  0
    7.7829   -6.6659    0.0000 C   0  0
   10.2641   -8.0964    0.0000 O   0  0
    9.4518   -9.5148    0.0000 C   0  0
    8.2072   -8.7996    0.0000 C   0  0
    5.7220   -5.9628    0.0000 C   0  0
    5.7220   -7.4013    0.0000 C   0  0
    8.2072  -10.2301    0.0000 C   0  0
    5.3179   -6.6659    0.0000 C   0  0
    7.7829   -9.5148    0.0000 C   0  0
    9.0195  -10.2301    0.0000 C   0  0
    5.3300   -8.1207    0.0000 Cl  0  0
    6.9666   -5.2475    0.0000 O   0  0
    7.8193  -10.9534    0.0000 F   0  0
  2  7  1  0
  3  8  2  0
  4  2  1  0
  5  1  2  0
  6  1  1  0
  7  3  1  0
  8  1  1  0
  9  2  2  0
 10  4  1  0
 11  4  2  0
 12  5  1  0
 13  6  2  0
 14 16  2  0
 15 13  1  0
 16 11  1  0
 17 10  2  0
 18 13  1  0
 19  5  1  0
 20 14  1  0
 15 12  2  0
 17 14  1  0
M  END
> <COMPOUND_ID>
DNDI1417168

$$$$

  SciTegic04051205032D

 22 24  0  0  0  0            999 V2000
    7.8263   -6.2516    0.0000 C   0  0
    8.5483   -6.6882    0.0000 C   0  0
    8.5277   -7.5203    0.0000 N   0  0
    7.1111   -6.6676    0.0000 C   0  0
    7.8263   -5.4332    0.0000 C   0  0
    7.1111   -5.0241    0.0000 C   0  0
    9.2531   -7.9157    0.0000 C   0  0
    6.4062   -6.2516    0.0000 C   0  0
    6.4062   -5.4332    0.0000 C   0  0
    9.2738   -6.2722    0.0000 O   0  0
    9.2531   -8.7512    0.0000 C   0  0
    8.5483   -5.0000    0.0000 O   0  0
    8.5105   -9.1844    0.0000 O   0  0
    9.9580   -7.5203    0.0000 C   0  0
    5.7048   -6.6676    0.0000 C   0  0
    5.7048   -5.0241    0.0000 C   0  0
    9.9580   -9.1638    0.0000 C   0  0
    7.7850   -8.7650    0.0000 C   0  0
   10.6629   -7.9157    0.0000 C   0  0
    5.0000   -5.4332    0.0000 C   0  0
    5.0000   -6.2516    0.0000 C   0  0
   10.6629   -8.7512    0.0000 C   0  0
  2  1  1  0
  3  2  1  0
  4  1  2  0
  5  1  1  0
  6  5  2  0
  7  3  1  0
  8  4  1  0
  9  6  1  0
 10  2  2  0
 11  7  2  0
 12  5  1  0
 13 11  1  0
 14  7  1  0
 15  8  1  0
 16  9  1  0
 17 11  1  0
 18 13  1  0
 19 14  2  0
 20 16  2  0
 21 15  2  0
 22 19  1  0
  9  8  2  0
 20 21  1  0
 17 22  2  0
M  END
> <COMPOUND_ID>
DNDI1417169

$$$$

  SciTegic04051205032D

 22 24  0  0  0  0            999 V2000
    7.1496   -8.3451    0.0000 C   0  0
    7.1496   -9.9908    0.0000 N   0  0
    7.1496   -7.5162    0.0000 N   0  0
    6.4311   -8.7505    0.0000 C   0  0
    7.8591   -8.7505    0.0000 C   0  0
    7.8591   -9.5823    0.0000 C   0  0
    6.4311   -9.5823    0.0000 C   0  0
    6.4430   -6.2879    0.0000 C   0  0
    6.4430   -7.1048    0.0000 N   0  0
    5.7245   -5.8825    0.0000 C   0  0
    7.1615   -5.8825    0.0000 O   0  0
    8.5657   -8.3451    0.0000 C   0  0
    5.7245   -8.3451    0.0000 C   0  0
    8.5657   -9.9908    0.0000 C   0  0
    5.7245   -9.9908    0.0000 C   0  0
    5.0835   -6.3386    0.0000 C   0  0
    5.0000   -5.5157    0.0000 C   0  0
    5.7066   -5.0000    0.0000 C   0  0
    5.0000   -8.7505    0.0000 C   0  0
    9.2932   -8.7505    0.0000 C   0  0
    9.2932   -9.5823    0.0000 C   0  0
    5.0000   -9.5823    0.0000 C   0  0
  2  6  1  0
  3  1  2  0
  4  1  1  0
  5  1  1  0
  6  5  2  0
  7  4  1  0
  8  9  1  0
  9  3  1  0
 10  8  1  0
 11  8  2  0
 12  5  1  0
 13  4  2  0
 14  6  1  0
 15  7  2  0
 16 10  1  0
 17 10  1  0
 18 10  1  0
 19 13  1  0
 20 12  2  0
 21 20  1  0
 22 19  2  0
  2  7  1  0
 21 14  2  0
 22 15  1  0
M  END
> <COMPOUND_ID>
DNDI1417170

$$$$

  SciTegic04051205032D

 22 24  0  0  0  0            999 V2000
    7.7035   -6.4307    0.0000 C   0  0
    7.2211   -7.0963    0.0000 N   0  0
    7.2086   -5.7611    0.0000 N   0  0
    8.5270   -6.4224    0.0000 N   0  0
    6.4350   -6.8467    0.0000 C   0  0
    7.4789   -7.8824    0.0000 C   0  0
    6.4308   -6.0232    0.0000 C   0  0
    8.9305   -5.7112    0.0000 C   0  0
    6.9341   -8.4938    0.0000 C   0  0
    8.5146   -5.0000    0.0000 O   0  0
    7.1919   -9.2757    0.0000 C   0  0
    5.7112   -7.2668    0.0000 C   0  0
    5.7112   -5.6114    0.0000 C   0  0
    9.7541   -5.7070    0.0000 C   0  0
    6.1230   -8.3274    0.0000 C   0  0
    8.0030   -9.4379    0.0000 C   0  0
    6.6471   -9.8913    0.0000 C   0  0
   10.1741   -6.4183    0.0000 C   0  0
    5.0000   -6.8550    0.0000 C   0  0
    5.0000   -6.0314    0.0000 C   0  0
    5.5740   -8.9430    0.0000 C   0  0
    5.8360   -9.7249    0.0000 C   0  0
  2  1  1  0
  3  1  2  0
  4  1  1  0
  5  2  1  0
  6  2  1  0
  7  3  1  0
  8  4  1  0
  9  6  1  0
 10  8  2  0
 11  9  1  0
 12  5  2  0
 13  7  2  0
 14  8  1  0
 15  9  2  0
 16 11  1  0
 17 11  2  0
 18 14  1  0
 19 12  1  0
 20 13  1  0
 21 15  1  0
 22 21  2  0
  7  5  1  0
 20 19  2  0
 17 22  1  0
M  END
> <COMPOUND_ID>
DNDI1417171

$$$$

  SciTegic04051205032D

 22 24  0  0  0  0            999 V2000
    7.9592   -8.9581    0.0000 C   0  0
    7.0685   -8.8956    0.0000 C   0  0
    8.4212   -9.6947    0.0000 C   0  0
    8.1465  -10.3732    0.0000 C   0  0
    6.4567   -9.5782    0.0000 C   0  0
    7.3224  -10.7228    0.0000 C   0  0
    6.6357  -10.4231    0.0000 C   0  0
    8.6917   -8.5253    0.0000 O   0  0
    8.5460   -5.8158    0.0000 N   0  0
    7.9550   -7.2600    0.0000 C   0  0
    8.5960  -10.9516    0.0000 C   0  0
    9.1454   -9.5949    0.0000 C   0  0
    5.6368   -9.3119    0.0000 C   0  0
    5.9989  -10.9933    0.0000 C   0  0
    7.9467   -6.4151    0.0000 C   0  0
    8.6834   -7.6887    0.0000 C   0  0
    9.3576   -6.0363    0.0000 C   0  0
    8.3213   -5.0000    0.0000 C   0  0
    9.3285  -10.8477    0.0000 C   0  0
    9.6074  -10.1567    0.0000 C   0  0
    5.1873  -10.7311    0.0000 C   0  0
    5.0000   -9.8862    0.0000 C   0  0
  2  1  2  0
  3  1  1  0
  4  3  2  0
  5  2  1  0
  6  4  1  0
  7  5  2  0
  8  1  1  0
  9 15  1  0
 10 16  1  0
 11  4  1  0
 12  3  1  0
 13  5  1  0
 14  7  1  0
 15 10  1  0
 16  8  1  0
 17  9  1  0
 18  9  1  0
 19 20  1  0
 20 12  2  0
 21 14  2  0
 22 13  2  0
  7  6  1  0
 21 22  1  0
 19 11  2  0
M  END
> <COMPOUND_ID>
DNDI1417172

$$$$

  SciTegic04051205032D

 22 24  0  0  0  0            999 V2000
    5.7256   -9.3293    0.0000 N   0  0
    6.1313  -10.6085    0.0000 C   0  0
    5.4677  -10.1065    0.0000 C   0  0
    6.5577   -9.3431    0.0000 C   0  0
    6.8019  -10.1305    0.0000 C   0  0
    5.6052   -7.9022    0.0000 C   0  0
    5.2511   -8.6553    0.0000 C   0  0
    5.1273   -7.2351    0.0000 N   0  0
    6.4236   -7.8300    0.0000 O   0  0
    5.4780   -6.4924    0.0000 C   0  0
    6.1245  -11.4373    0.0000 C   0  0
    6.2930   -6.4202    0.0000 C   0  0
    6.6403   -5.6739    0.0000 C   0  0
    7.1217   -8.7378    0.0000 C   0  0
    7.6065  -10.3128    0.0000 C   0  0
    6.8363  -11.8636    0.0000 O   0  0
    5.3404   -5.0756    0.0000 C   0  0
    5.0000   -5.8253    0.0000 C   0  0
    6.1657   -5.0000    0.0000 C   0  0
    7.4621   -5.5983    0.0000 C   0  0
    7.9229   -8.9270    0.0000 C   0  0
    8.1739   -9.7145    0.0000 C   0  0
  2  3  2  0
  3  1  1  0
  4  1  1  0
  5  4  2  0
  6  7  1  0
  7  1  1  0
  8  6  1  0
  9  6  2  0
 10  8  1  0
 11  2  1  0
 12 10  2  0
 13 12  1  0
 14  4  1  0
 15  5  1  0
 16 11  1  0
 17 18  2  0
 18 10  1  0
 19 17  1  0
 20 13  1  0
 21 14  2  0
 22 21  1  0
  2  5  1  0
 15 22  2  0
 13 19  2  0
M  END
> <COMPOUND_ID>
DNDI1417173

$$$$

  SciTegic04051205032D

 21 24  0  0  0  0            999 V2000
    7.7156   -7.0630    0.0000 C   0  0
    6.9045   -7.0630    0.0000 C   0  0
    8.2089   -6.4273    0.0000 C   0  0
    7.3393   -5.2475    0.0000 S   0  0
    8.0690   -5.6492    0.0000 C   0  0
    8.0792   -7.7851    0.0000 N   0  0
    6.3909   -6.4273    0.0000 C   0  0
    6.5663   -5.6212    0.0000 C   0  0
    8.7556   -9.2980    0.0000 N   0  0
    9.0251   -6.6841    0.0000 C   0  0
    8.9488   -7.8868    0.0000 C   0  0
    7.6114   -8.4461    0.0000 C   0  0
    8.6742   -5.0644    0.0000 C   0  0
    9.2463   -8.6267    0.0000 C   0  0
    7.9521   -9.1988    0.0000 C   0  0
    5.9866   -5.0644    0.0000 C   0  0
    5.6102   -6.6841    0.0000 C   0  0
    9.6379   -6.1348    0.0000 C   0  0
    9.4548   -5.3390    0.0000 C   0  0
    5.0000   -6.1348    0.0000 C   0  0
    5.2085   -5.2754    0.0000 C   0  0
  2  1  2  0
  3  1  1  0
  4  5  1  0
  5  3  2  0
  6  1  1  0
  7  2  1  0
  8  7  2  0
  9 15  1  0
 10  3  1  0
 11  6  1  0
 12  6  1  0
 13  5  1  0
 14 11  1  0
 15 12  1  0
 16  8  1  0
 17  7  1  0
 18 10  2  0
 19 18  1  0
 20 17  2  0
 21 20  1  0
  8  4  1  0
  9 14  1  0
 19 13  2  0
 21 16  2  0
M  END
> <COMPOUND_ID>
DNDI1417174

$$$$

  SciTegic04051205032D

 22 24  0  0  0  0            999 V2000
    7.8674   -9.9612    0.0000 C   0  0
    7.1626   -8.7062    0.0000 C   0  0
    8.5963   -9.5693    0.0000 N   0  0
    7.1626   -7.0629    0.0000 C   0  0
    6.4543   -7.4617    0.0000 C   0  0
    7.1626   -9.5486    0.0000 N   0  0
    6.4543   -8.3040    0.0000 N   0  0
    7.8674   -8.3040    0.0000 N   0  0
    7.8674   -7.4961    0.0000 C   0  0
    7.8434  -10.7691    0.0000 N   0  0
    9.2977   -9.9681    0.0000 C   0  0
    5.7393   -7.0629    0.0000 C   0  0
    9.2701  -10.8035    0.0000 C   0  0
    7.1626   -6.2549    0.0000 C   0  0
    8.5413  -11.2058    0.0000 C   0  0
    5.7393   -6.2549    0.0000 C   0  0
    6.4543   -5.8388    0.0000 C   0  0
   10.0369   -9.6036    0.0000 O   0  0
    8.6444   -7.0972    0.0000 C   0  0
    5.0000   -7.4342    0.0000 C   0  0
    8.5757  -12.0481    0.0000 C   0  0
    6.4543   -5.0000    0.0000 C   0  0
  2  6  1  0
  3  1  1  0
  4  9  1  0
  5  7  1  0
  6  1  1  0
  7  2  2  0
  8  2  1  0
  9  8  2  0
 10  1  2  0
 11  3  2  0
 12  5  1  0
 13 15  2  0
 14  4  1  0
 15 10  1  0
 16 12  2  0
 17 14  2  0
 18 11  1  0
 19  9  1  0
 20 12  1  0
 21 15  1  0
 22 17  1  0
 13 11  1  0
  4  5  2  0
 17 16  1  0
M  END
> <COMPOUND_ID>
DNDI1417175

$$$$

  SciTegic04051205032D

 21 24  0  0  0  0            999 V2000
    7.6986   -6.6967    0.0000 C   0  0
    8.5231   -6.6925    0.0000 C   0  0
    7.2196   -7.3672    0.0000 S   0  0
    7.2071   -6.0304    0.0000 C   0  0
    9.0145   -7.3547    0.0000 O   0  0
    6.4242   -6.2928    0.0000 C   0  0
    9.0020   -6.0221    0.0000 N   0  0
    6.4283   -7.1131    0.0000 C   0  0
    9.7975   -7.0965    0.0000 C   0  0
    7.4570   -5.2475    0.0000 O   0  0
    9.7933   -6.2720    0.0000 C   0  0
   10.4596   -7.5713    0.0000 C   0  0
    5.7079   -5.8763    0.0000 C   0  0
    5.7079   -7.5338    0.0000 C   0  0
   11.2133   -7.2340    0.0000 C   0  0
   10.3763   -8.3959    0.0000 C   0  0
    5.0000   -6.2970    0.0000 C   0  0
    5.0000   -7.1215    0.0000 C   0  0
   11.8797   -7.7087    0.0000 C   0  0
   11.0468   -8.8747    0.0000 C   0  0
   11.8005   -8.5333    0.0000 C   0  0
  2  1  2  0
  3  1  1  0
  4  1  1  0
  5  2  1  0
  6  4  1  0
  7  2  1  0
  8  3  1  0
  9  5  1  0
 10  4  2  0
 11  7  1  0
 12  9  1  0
 13  6  2  0
 14  8  2  0
 15 12  1  0
 16 12  2  0
 17 13  1  0
 18 14  1  0
 19 15  2  0
 20 16  1  0
 21 20  2  0
  8  6  1  0
 11  9  1  0
 18 17  2  0
 21 19  1  0
M  END
> <COMPOUND_ID>
DNDI1417176

$$$$

  SciTegic04051205032D

 21 24  0  0  0  0            999 V2000
    7.4494   -7.4381    0.0000 C   0  0
    7.0116   -8.0457    0.0000 N   0  0
    7.0041   -6.8342    0.0000 C   0  0
    6.2983   -7.8192    0.0000 C   0  0
    6.2945   -7.0758    0.0000 C   0  0
    8.1966   -7.4381    0.0000 S   0  0
    7.2456   -8.7515    0.0000 C   0  0
    8.1024   -5.0302    0.0000 O   0  0
    6.4983   -5.9057    0.0000 C   0  0
    8.0533   -6.8568    0.0000 C   0  0
    5.6454   -8.1967    0.0000 C   0  0
    5.6454   -6.6983    0.0000 C   0  0
    7.0418   -5.0000    0.0000 C   0  0
    8.6081   -5.9586    0.0000 C   0  0
    6.7474   -9.3101    0.0000 C   0  0
    7.9740   -8.9025    0.0000 C   0  0
    5.0000   -7.8269    0.0000 C   0  0
    5.0000   -7.0758    0.0000 C   0  0
    6.9814  -10.0196    0.0000 C   0  0
    8.2118   -9.6120    0.0000 C   0  0
    7.7136  -10.1706    0.0000 C   0  0
  2  1  1  0
  3  1  1  0
  4  2  1  0
  5  3  1  0
  6  1  2  0
  7  2  1  0
  8 13  1  0
  9  3  1  0
 10  3  1  0
 11  4  2  0
 12  5  2  0
 13  9  1  0
 14 10  1  0
 15  7  2  0
 16  7  1  0
 17 11  1  0
 18 12  1  0
 19 15  1  0
 20 16  2  0
 21 20  1  0
  4  5  1  0
  8 14  1  0
 17 18  2  0
 21 19  2  0
M  END
> <COMPOUND_ID>
DNDI1417177

$$$$

  SciTegic04051205032D

 22 24  0  0  0  0            999 V2000
    7.2108   -5.7884    0.0000 N   0  0
    7.2025   -7.1232    0.0000 N   0  0
    7.6906   -6.4516    0.0000 C   0  0
    6.4224   -6.0387    0.0000 C   0  0
    6.4141   -6.8646    0.0000 C   0  0
    8.5165   -6.4516    0.0000 C   0  0
   10.1642   -6.4642    0.0000 C   0  0
   10.9901   -6.4725    0.0000 N   0  0
    8.9170   -7.1733    0.0000 C   0  0
    8.9253   -5.7383    0.0000 C   0  0
    9.7554   -5.7508    0.0000 C   0  0
    9.7429   -7.1775    0.0000 C   0  0
    7.4528   -7.9033    0.0000 C   0  0
    7.4653   -5.0000    0.0000 C   0  0
    5.7091   -7.2776    0.0000 C   0  0
    5.7091   -5.6257    0.0000 C   0  0
   11.4031   -7.1900    0.0000 C   0  0
   11.4073   -5.7592    0.0000 C   0  0
   12.2332   -5.7634    0.0000 C   0  0
   12.2290   -7.1900    0.0000 C   0  0
    5.0000   -6.0387    0.0000 C   0  0
    5.0000   -6.8646    0.0000 C   0  0
  2  3  1  0
  3  1  1  0
  4  1  1  0
  5  4  2  0
  6  3  1  0
  7 11  2  0
  8  7  1  0
  9  6  1  0
 10  6  2  0
 11 10  1  0
 12  9  2  0
 13  2  1  0
 14  1  1  0
 15  5  1  0
 16  4  1  0
 17  8  1  0
 18  8  1  0
 19 18  1  0
 20 17  1  0
 21 16  2  0
 22 21  1  0
  5  2  1  0
 15 22  2  0
 12  7  1  0
M  END
> <COMPOUND_ID>
DNDI1417178

$$$$

  SciTegic04051205032D

 21 23  0  0  0  0            999 V2000
    7.3247   -5.2476    0.0000 S   0  0
    7.7063   -7.0614    0.0000 C   0  0
    6.8979   -7.0614    0.0000 C   0  0
    8.0586   -5.6453    0.0000 C   0  0
    8.1977   -6.4148    0.0000 C   0  0
    6.5552   -5.6097    0.0000 C   0  0
    6.3806   -6.4148    0.0000 C   0  0
    7.6869   -9.9132    0.0000 N   0  0
    8.1071   -7.7760    0.0000 C   0  0
    8.6633   -5.0568    0.0000 C   0  0
    7.6966   -8.4809    0.0000 C   0  0
    9.0157   -6.6831    0.0000 C   0  0
    5.9635   -5.0568    0.0000 C   0  0
    5.6014   -6.6831    0.0000 C   0  0
    8.1071   -9.2084    0.0000 C   0  0
    8.0974  -10.6342    0.0000 C   0  0
    6.8688   -9.9132    0.0000 C   0  0
    9.4490   -5.3381    0.0000 C   0  0
    9.6268   -6.1335    0.0000 C   0  0
    5.0000   -6.1335    0.0000 C   0  0
    5.2004   -5.2799    0.0000 C   0  0
  2  5  1  0
  3  7  1  0
  4  1  1  0
  5  4  2  0
  6  1  1  0
  7  6  2  0
  8 15  1  0
  9  2  1  0
 10  4  1  0
 11  9  1  0
 12  5  1  0
 13  6  1  0
 14  7  1  0
 15 11  1  0
 16  8  1  0
 17  8  1  0
 18 10  2  0
 19 18  1  0
 20 14  2  0
 21 13  2  0
  3  2  2  0
 20 21  1  0
 19 12  2  0
M  END
> <COMPOUND_ID>
DNDI1417179

$$$$

  SciTegic04051205032D

 21 23  0  0  0  0            999 V2000
    5.7329   -8.2213    0.0000 N   0  3
    9.3506   -6.9648    0.0000 N   0  0
    6.4607   -7.8076    0.0000 C   0  0
    9.3506   -7.8076    0.0000 C   0  0
    8.6228   -6.5511    0.0000 C   0  0
    7.1936   -8.2213    0.0000 C   0  0
    7.9056   -7.8076    0.0000 C   0  0
    8.6386   -8.2056    0.0000 C   0  0
    7.9056   -6.9805    0.0000 C   0  0
   10.0574   -6.5564    0.0000 C   0  0
   10.0417   -5.7554    0.0000 C   0  0
   10.7799   -6.9438    0.0000 C   0  0
   11.4395   -5.6926    0.0000 C   0  0
    5.7329   -9.0380    0.0000 C   0  0
    5.0000   -7.8076    0.0000 C   0  0
   11.4552   -6.5250    0.0000 C   0  0
   10.7170   -5.3313    0.0000 C   0  0
   12.1149   -5.2475    0.0000 Cl  0  0
    6.4607   -6.9805    0.0000 C   0  0
    5.0000   -6.9805    0.0000 C   0  0
    5.7329   -6.5564    0.0000 C   0  0
  2  5  1  0
  3  1  2  0
  4  8  2  0
  5  9  2  0
  6  3  1  0
  7  6  2  0
  8  7  1  0
  9  7  1  0
 10  2  1  0
 11 10  1  0
 12 10  2  0
 13 16  2  0
 14  1  1  0
 15  1  1  0
 16 12  1  0
 17 11  2  0
 18 13  1  0
 19  3  1  0
 20 15  2  0
 21 20  1  0
 19 21  2  0
  2  4  1  0
 17 13  1  0
M  CHG  1   1   1
M  END
> <COMPOUND_ID>
DNDI1417180

$$$$

  SciTegic04051205032D

 21 21  0  0  0  0            999 V2000
    9.2529   -7.7994    0.0000 C   0  0
    7.8285   -7.0042    0.0000 C   0  0
    8.5393   -8.1985    0.0000 C   0  0
    7.8402   -7.7878    0.0000 C   0  0
    6.4157   -6.9663    0.0000 C   0  0
    7.1294   -6.5556    0.0000 C   0  0
    9.2529   -6.9896    0.0000 C   0  0
    9.9637   -8.2072    0.0000 C   0  0
    6.4157   -7.7878    0.0000 C   0  0
    7.1294   -8.1985    0.0000 O   0  0
    7.1294   -5.7429    0.0000 O   0  0
    9.9375   -6.6110    0.0000 O   0  0
    9.9520   -9.0229    0.0000 O   0  0
    5.7107   -6.5556    0.0000 O   0  0
    8.5393   -6.5935    0.0000 O   0  0
   10.6657   -7.7994    0.0000 O   0  0
   10.6424   -6.9663    0.0000 C   0  0
    9.4073   -5.8040    0.0000 C   0  0
    5.0000   -6.9605    0.0000 C   0  0
    9.2413   -5.0000    0.0000 C   0  0
   11.0736   -6.4624    0.0000 C   0  0
  2  4  2  0
  3  1  2  0
  4  3  1  0
  5  9  2  0
  6  2  1  0
  7  1  1  0
  8  1  1  0
  9 10  1  0
 10  4  1  0
 11  6  2  0
 12  7  2  0
 13  8  2  0
 14  5  1  0
 15  7  1  0
 16  8  1  0
 17 16  1  0
 18 15  1  0
 19 14  1  0
 20 18  1  0
 21 17  1  0
  5  6  1  0
M  END
> <COMPOUND_ID>
DNDI1417181

$$$$

  SciTegic04051205032D

 22 24  0  0  0  0            999 V2000
    8.2099   -6.8392    0.0000 C   0  0
    7.5655   -6.3486    0.0000 C   0  0
    8.8731   -6.3845    0.0000 C   0  0
    8.6218   -5.6102    0.0000 C   0  0
    7.8322   -5.6102    0.0000 C   0  0
    8.1911   -7.6647    0.0000 N   0  0
    9.9089   -7.8955    0.0000 C   0  0
    9.2047   -8.2800    0.0000 N   0  0
    7.3074   -5.0000    0.0000 C   0  0
    9.1654   -5.0308    0.0000 C   0  0
    9.6474   -6.5640    0.0000 C   0  0
    6.7759   -6.4922    0.0000 C   0  0
    9.9448   -7.0750    0.0000 N   0  0
   10.6250   -8.2937    0.0000 N   0  0
    6.2477   -5.8581    0.0000 C   0  0
   10.1909   -5.9743    0.0000 C   0  0
    6.5092   -5.1453    0.0000 C   0  0
    9.9601   -5.2205    0.0000 C   0  0
   11.0164   -6.1384    0.0000 O   0  0
    5.4222   -5.9247    0.0000 O   0  0
    5.0000   -6.6460    0.0000 C   0  0
   11.5634   -6.7725    0.0000 C   0  0
  2  1  1  0
  3  1  1  0
  4  3  2  0
  5  2  2  0
  6  1  2  0
  7  8  1  0
  8  6  1  0
  9  5  1  0
 10  4  1  0
 11  3  1  0
 12  2  1  0
 13  7  2  0
 14  7  1  0
 15 12  2  0
 16 11  2  0
 17 15  1  0
 18 16  1  0
 19 16  1  0
 20 15  1  0
 21 20  1  0
 22 19  1  0
  4  5  1  0
 18 10  2  0
 17  9  2  0
M  END
> <COMPOUND_ID>
DNDI1417182

$$$$

  SciTegic04051205032D

 22 25  0  0  0  0            999 V2000
    7.2244   -6.4989    0.0000 N   0  0
    7.7092   -5.8113    0.0000 C   0  0
    7.2106   -5.1478    0.0000 N   0  0
    6.4302   -6.2480    0.0000 C   0  0
    7.6370   -7.2106    0.0000 C   0  0
    6.4234   -5.4126    0.0000 C   0  0
    7.2313   -7.9223    0.0000 C   0  0
    8.5343   -5.8113    0.0000 C   0  0
    7.6370   -8.6237    0.0000 C   0  0
    9.0226   -6.4852    0.0000 O   0  0
    8.4587   -8.6203    0.0000 F   0  0
    5.7117   -6.6571    0.0000 C   0  0
    5.7117   -5.0000    0.0000 C   0  0
    6.4061   -7.9189    0.0000 C   0  0
    9.7962   -6.2239    0.0000 C   0  0
    7.2347   -9.3354    0.0000 C   0  0
    9.0088   -5.1478    0.0000 C   0  0
    9.7962   -5.3988    0.0000 C   0  0
    5.0000   -6.2480    0.0000 C   0  0
    5.9970   -8.6306    0.0000 C   0  0
    5.0000   -5.4126    0.0000 C   0  0
    6.4096   -9.3423    0.0000 C   0  0
  2  1  1  0
  3  2  2  0
  4  1  1  0
  5  1  1  0
  6  4  1  0
  7  5  1  0
  8  2  1  0
  9  7  1  0
 10  8  1  0
 11  9  1  0
 12  4  2  0
 13  6  2  0
 14  7  2  0
 15 10  1  0
 16  9  2  0
 17  8  1  0
 18 17  1  0
 19 12  1  0
 20 14  1  0
 21 19  2  0
 22 20  2  0
  6  3  1  0
 21 13  1  0
 18 15  1  0
 22 16  1  0
M  END
> <COMPOUND_ID>
DNDI1417183

$$$$

  SciTegic04051205032D

 22 23  0  0  0  0            999 V2000
    5.7435   -6.6172    0.0000 N   0  0
    7.2151   -6.7041    0.0000 C   0  0
    7.9356   -6.3949    0.0000 C   0  0
    6.4716   -6.2263    0.0000 C   0  0
    5.7154   -7.4603    0.0000 C   0  0
    8.6586   -6.0782    0.0000 C   0  0
    6.4384   -7.9100    0.0000 N   0  0
    7.1818   -7.5140    0.0000 C   0  0
    9.3279   -5.6719    0.0000 C   0  0
    9.9054   -6.3183    0.0000 C   0  0
    6.5125   -5.4062    0.0000 N   0  0
    5.0000   -7.8461    0.0000 N   0  0
    9.7751   -7.1384    0.0000 C   0  0
   10.6821   -6.0322    0.0000 C   0  0
   11.1981   -7.3607    0.0000 C   0  0
   11.3182   -6.5482    0.0000 C   0  0
   10.4163   -7.6596    0.0000 C   0  0
   11.8343   -7.8691    0.0000 O   0  0
    7.8768   -7.9560    0.0000 C   0  0
    8.8655   -5.0000    0.0000 C   0  0
    9.9769   -5.1661    0.0000 C   0  0
   12.5267   -7.4271    0.0000 C   0  0
  2  4  1  0
  3  2  1  0
  4  1  2  0
  5  1  1  0
  6  3  3  0
  7  5  2  0
  8  7  1  0
  9  6  1  0
 10  9  1  0
 11  4  1  0
 12  5  1  0
 13 10  1  0
 14 10  2  0
 15 16  2  0
 16 14  1  0
 17 13  2  0
 18 15  1  0
 19  8  1  0
 20  9  1  0
 21  9  1  0
 22 18  1  0
  8  2  2  0
 15 17  1  0
M  END
> <COMPOUND_ID>
DNDI1417184

$$$$

  SciTegic04051205032D

 19 21  0  0  0  0            999 V2000
    9.2709   -5.8740    0.0000 C   0  0
    9.9909   -6.2697    0.0000 N   0  0
    9.4632   -5.0604    0.0000 N   0  0
    8.5618   -6.2697    0.0000 C   0  0
   10.6066   -5.7200    0.0000 C   0  0
    7.1382   -7.1107    0.0000 C   0  0
    7.8528   -5.8740    0.0000 O   0  0
    7.8528   -7.5230    0.0000 C   0  0
    7.1382   -6.2697    0.0000 C   0  0
   10.2768   -5.0000    0.0000 C   0  0
    8.5618   -7.1107    0.0000 C   0  0
    6.4291   -7.5230    0.0000 C   0  0
    7.8528   -8.3584    0.0000 O   0  0
    6.4291   -5.8740    0.0000 C   0  0
   11.4420   -5.8245    0.0000 Cl  0  0
    5.7091   -7.1107    0.0000 C   0  0
   10.0624   -7.1107    0.0000 C   0  0
    5.7091   -6.2697    0.0000 C   0  0
    5.0000   -7.5230    0.0000 Cl  0  0
  2  1  1  0
  3  1  2  0
  4  1  1  0
  5  2  1  0
  6  8  1  0
  7  4  1  0
  8 11  1  0
  9  7  1  0
 10  3  1  0
 11  4  1  0
 12  6  2  0
 13  8  2  0
 14  9  2  0
 15  5  1  0
 16 12  1  0
 17  2  1  0
 18 14  1  0
 19 16  1  0
 10  5  2  0
  9  6  1  0
 18 16  2  0
M  END
> <COMPOUND_ID>
DNDI1417185

$$$$

  SciTegic04051205032D

 22 24  0  0  0  0            999 V2000
    6.4389   -6.5849    0.0000 C   0  0
    6.4389   -5.7596    0.0000 C   0  0
    5.6560   -5.5339    0.0000 N   0  0
    5.6715   -6.8473    0.0000 N   0  0
    7.1881   -6.9828    0.0000 C   0  0
    5.1650   -6.2125    0.0000 O   0  0
   10.0449   -6.9024    0.0000 C   0  0
   10.7390   -6.5087    0.0000 C   0  0
    8.6398   -6.9546    0.0000 N   0  0
   10.0449   -7.7446    0.0000 C   0  0
    7.9062   -6.5722    0.0000 N   0  0
    9.3212   -6.5384    0.0000 C   0  0
    7.1881   -7.8208    0.0000 O   0  0
   11.4797   -6.9122    0.0000 C   0  0
    7.1232   -5.2475    0.0000 N   0  0
   10.7602   -8.1509    0.0000 C   0  0
   11.5009   -7.7192    0.0000 C   0  0
    9.3424   -8.1636    0.0000 O   0  0
   10.7390   -5.6919    0.0000 C   0  0
   12.1823   -6.4960    0.0000 C   0  0
   11.4543   -5.2729    0.0000 C   0  0
   12.1696   -5.6707    0.0000 C   0  0
  2  1  1  0
  3  2  2  0
  4  1  2  0
  5  1  1  0
  6  4  1  0
  7 12  1  0
  8  7  1  0
  9 11  1  0
 10  7  2  0
 11  5  1  0
 12  9  2  0
 13  5  2  0
 14  8  2  0
 15  2  1  0
 16 10  1  0
 17 16  2  0
 18 10  1  0
 19  8  1  0
 20 14  1  0
 21 19  2  0
 22 21  1  0
  3  6  1  0
 14 17  1  0
 22 20  2  0
M  END
> <COMPOUND_ID>
DNDI1417186

$$$$

  SciTegic04051205032D

 23 26  0  0  0  0            999 V2000
    7.8748   -7.4783    0.0000 C   0  0
    7.8748   -6.6538    0.0000 C   0  0
    7.1567   -6.2428    0.0000 C   0  0
    7.1567   -7.8917    0.0000 N   0  0
    6.4410   -6.6538    0.0000 C   0  0
    6.4410   -7.4783    0.0000 C   0  0
    8.5809   -7.8797    0.0000 C   0  0
    8.5906   -6.2428    0.0000 C   0  0
    7.1567   -5.4110    0.0000 O   0  0
    5.7157   -6.2306    0.0000 C   0  0
    5.7157   -7.9014    0.0000 C   0  0
    9.2748   -7.4783    0.0000 C   0  0
    8.5906   -8.6993    0.0000 C   0  0
    9.3135   -6.6417    0.0000 C   0  0
    8.5906   -5.4110    0.0000 C   0  0
    5.0000   -6.6538    0.0000 C   0  0
    5.0000   -7.4783    0.0000 C   0  0
    9.9881   -7.8676    0.0000 C   0  0
   10.0316   -6.2428    0.0000 C   0  0
    9.3135   -5.0000    0.0000 C   0  0
    9.2966   -9.0886    0.0000 C   0  0
   10.0099   -8.6776    0.0000 C   0  0
   10.0413   -5.4013    0.0000 C   0  0
  2  1  2  0
  3  2  1  0
  4  1  1  0
  5  6  2  0
  6  4  1  0
  7  1  1  0
  8  2  1  0
  9  3  2  0
 10  5  1  0
 11  6  1  0
 12  7  1  0
 13  7  2  0
 14  8  2  0
 15  8  1  0
 16 10  2  0
 17 11  2  0
 18 12  2  0
 19 14  1  0
 20 15  2  0
 21 13  1  0
 22 18  1  0
 23 19  2  0
  5  3  1  0
 17 16  1  0
 22 21  2  0
 23 20  1  0
M  END
> <COMPOUND_ID>
DNDI1417187

$$$$

  SciTegic04051205032D

 22 24  0  0  0  0            999 V2000
    7.0756   -6.7667    0.0000 N   0  0
    8.4108   -7.7250    0.0000 N   0  0
    9.0784   -8.1973    0.0000 N   0  0
   11.1994   -9.5780    0.0000 C   0  0
    7.8249   -6.4260    0.0000 C   0  0
    6.9938   -7.5842    0.0000 C   0  0
    7.6614   -8.0610    0.0000 C   0  0
    8.4926   -6.9075    0.0000 C   0  0
   11.9487   -9.2374    0.0000 C   0  0
    9.9595   -7.8067    0.0000 C   0  0
    6.4079   -6.2944    0.0000 C   0  0
   10.5363   -9.0965    0.0000 C   0  0
   12.0305   -8.4289    0.0000 C   0  0
   10.6181   -8.2836    0.0000 C   0  0
   11.1176  -10.3909    0.0000 O   0  0
   11.3674   -7.9520    0.0000 C   0  0
   12.6073   -9.7142    0.0000 O   0  0
    5.6586   -6.6350    0.0000 C   0  0
    6.4851   -5.4769    0.0000 C   0  0
    5.8221   -5.0000    0.0000 C   0  0
    5.0000   -6.1581    0.0000 C   0  0
    5.0727   -5.3406    0.0000 C   0  0
  2  7  1  0
  3  2  1  0
  4 12  2  0
  5  1  1  0
  6  1  1  0
  7  6  1  0
  8  5  1  0
  9 13  2  0
 10  3  2  0
 11  1  1  0
 12 14  1  0
 13 16  1  0
 14 10  1  0
 15  4  1  0
 16 14  2  0
 17  9  1  0
 18 11  2  0
 19 11  1  0
 20 19  2  0
 21 18  1  0
 22 20  1  0
  2  8  1  0
 21 22  2  0
  9  4  1  0
M  END
> <COMPOUND_ID>
DNDI1417188

$$$$

  SciTegic04051205032D

 22 23  0  0  0  0            999 V2000
   10.0470   -7.4212    0.0000 N   0  0
   10.7570   -7.0206    0.0000 C   0  0
    8.5498   -7.4712    0.0000 C   0  0
    9.3371   -7.0206    0.0000 O   0  0
    7.8398   -7.0525    0.0000 C   0  0
    5.7100   -5.8101    0.0000 C   0  0
    6.4199   -6.2197    0.0000 C   0  0
    8.5361   -8.3632    0.0000 O   0  0
   12.8778   -8.2403    0.0000 N   0  0
   11.4669   -7.4212    0.0000 C   0  0
    7.8398   -6.2334    0.0000 C   0  0
    7.1299   -7.4712    0.0000 C   0  0
    6.4199   -7.0389    0.0000 C   0  0
    7.1435   -5.8328    0.0000 C   0  0
   10.7570   -6.2015    0.0000 N   0  0
   12.8868   -7.4212    0.0000 C   0  0
   12.1769   -8.6590    0.0000 C   0  0
    5.3140   -5.1002    0.0000 C   0  0
    5.7236   -5.0000    0.0000 C   0  0
    5.0000   -6.2151    0.0000 C   0  0
   12.1769   -7.0206    0.0000 C   0  0
   11.4669   -8.2403    0.0000 C   0  0
  2  1  2  0
  3  4  1  0
  4  1  1  0
  5  3  1  0
  6  7  1  0
  7 13  1  0
  8  3  2  0
  9 17  1  0
 10  2  1  0
 11  5  2  0
 12  5  1  0
 13 12  2  0
 14 11  1  0
 15  2  1  0
 16 21  1  0
 17 22  2  0
 18  6  1  0
 19  6  1  0
 20  6  1  0
 21 10  2  0
 22 10  1  0
 16  9  2  0
  7 14  2  0
M  END
> <COMPOUND_ID>
DNDI1417189

$$$$

  SciTegic04051205032D

 22 24  0  0  0  0            999 V2000
    8.5790   -8.7152    0.0000 C   0  0
    7.8664   -7.4863    0.0000 N   0  3
    7.8505   -9.1333    0.0000 N   0  0
    8.5790   -7.9043    0.0000 N   0  0
    9.2853   -9.1333    0.0000 N   0  0
    7.1442   -8.7152    0.0000 C   0  0
    7.1442   -7.9043    0.0000 C   0  0
    6.4348   -9.1333    0.0000 C   0  0
    7.8664   -6.6501    0.0000 C   0  0
    9.2853   -9.9694    0.0000 C   0  0
   10.0075   -8.7405    0.0000 C   0  0
    5.7031   -8.7152    0.0000 C   0  0
    6.4348   -9.9409    0.0000 C   0  0
    8.5790   -6.2605    0.0000 C   0  0
    8.5917   -5.4244    0.0000 C   0  0
   10.7169   -9.1586    0.0000 C   0  0
   10.0075  -10.3875    0.0000 C   0  0
    9.3011   -5.0000    0.0000 C   0  0
    5.7031  -10.3590    0.0000 C   0  0
    5.0000   -9.1048    0.0000 C   0  0
    5.0000   -9.9409    0.0000 C   0  0
   10.7169   -9.9694    0.0000 C   0  0
  2  4  1  0
  3  1  1  0
  4  1  2  0
  5  1  1  0
  6  3  2  0
  7  2  2  0
  8  6  1  0
  9  2  1  0
 10  5  1  0
 11  5  1  0
 12  8  2  0
 13  8  1  0
 14  9  1  0
 15 14  1  0
 16 11  1  0
 17 10  1  0
 18 15  1  0
 19 13  2  0
 20 12  1  0
 21 19  1  0
 22 16  1  0
  7  6  1  0
 17 22  1  0
 20 21  2  0
M  CHG  1   2   1
M  END
> <COMPOUND_ID>
DNDI1417190

$$$$

  SciTegic04051205032D

 21 23  0  0  0  0            999 V2000
    6.8608   -7.0969    0.0000 S   0  0
    7.9590   -8.5593    0.0000 C   0  0
    7.2676   -9.0572    0.0000 C   0  0
    6.4767   -7.7143    0.0000 C   0  0
    6.4767   -8.5593    0.0000 C   0  0
    7.9590   -7.7143    0.0000 C   0  0
    7.5863   -7.0969    0.0000 C   0  0
    8.8126   -5.0000    0.0000 N   0  0
    8.6931   -8.9833    0.0000 C   0  0
    6.7498   -9.6604    0.0000 C   0  0
    5.7426   -8.9833    0.0000 C   0  0
    8.6931   -7.2960    0.0000 C   0  0
    5.7426   -7.2960    0.0000 C   0  0
    7.9960   -6.4055    0.0000 C   0  0
    9.2052   -5.6999    0.0000 C   0  0
    7.9960   -5.0000    0.0000 C   0  0
    8.7984   -6.4055    0.0000 C   0  0
    9.4357   -8.5593    0.0000 C   0  0
    9.4357   -7.7143    0.0000 C   0  0
    5.0000   -8.5593    0.0000 C   0  0
    5.0000   -7.7143    0.0000 C   0  0
  2  6  2  0
  3  5  1  0
  4  1  1  0
  5  4  1  0
  6  7  1  0
  7  1  1  0
  8 15  1  0
  9  2  1  0
 10  3  1  0
 11  5  2  0
 12  6  1  0
 13  4  2  0
 14  7  1  0
 15 17  1  0
 16  8  1  0
 17 14  1  0
 18 19  1  0
 19 12  2  0
 20 11  1  0
 21 13  1  0
  3  2  1  0
 21 20  2  0
 18  9  2  0
M  END
> <COMPOUND_ID>
DNDI1417191

$$$$

  SciTegic04051205032D

 21 23  0  0  0  0            999 V2000
    8.9924   -8.7090    0.0000 C   0  0
    7.5694   -7.8459    0.0000 C   0  0
    8.2771   -7.4415    0.0000 C   0  0
    8.9924   -7.8459    0.0000 N   0  0
    9.7388   -9.1910    0.0000 N   0  0
    8.2771   -9.0822    0.0000 N   0  0
   10.4620   -8.8411    0.0000 C   0  0
    7.5694   -8.6623    0.0000 C   0  0
   11.1463   -9.2843    0.0000 N   0  0
    6.8541   -7.4415    0.0000 C   0  0
    8.2771   -6.6095    0.0000 C   0  0
    6.8541   -9.0822    0.0000 C   0  0
   10.4853   -8.0325    0.0000 N   0  0
    6.1543   -7.8459    0.0000 C   0  0
    6.1543   -8.7090    0.0000 C   0  0
    5.3300   -7.5114    0.0000 Cl  0  0
    7.5694   -6.2363    0.0000 C   0  0
    8.9924   -6.2051    0.0000 C   0  0
    7.5694   -5.4198    0.0000 C   0  0
    8.9924   -5.4198    0.0000 C   0  0
    8.2771   -5.0000    0.0000 C   0  0
  2  8  2  0
  3  4  2  0
  4  1  1  0
  5  1  1  0
  6  1  2  0
  7  5  1  0
  8  6  1  0
  9  7  2  0
 10  2  1  0
 11  3  1  0
 12  8  1  0
 13  7  1  0
 14 15  1  0
 15 12  2  0
 16 14  1  0
 17 11  1  0
 18 11  2  0
 19 17  2  0
 20 18  1  0
 21 20  2  0
  3  2  1  0
 14 10  2  0
 19 21  1  0
M  END
> <COMPOUND_ID>
DNDI1417192

$$$$

  SciTegic04051205032D

 19 20  0  0  0  0            999 V2000
    6.4267   -6.6672    0.0000 C   0  0
    7.1441   -6.2442    0.0000 C   0  0
    7.8533   -6.6631    0.0000 N   0  0
    5.0000   -6.6755    0.0000 N   0  0
    5.7092   -6.2566    0.0000 C   0  0
    5.0000   -7.5008    0.0000 N   0  0
    8.5708   -6.2442    0.0000 C   0  0
    6.4267   -7.5008    0.0000 C   0  0
    5.7092   -7.9073    0.0000 C   0  0
    7.1441   -5.4189    0.0000 O   0  0
    9.2841   -6.6507    0.0000 C   0  0
    5.7092   -5.4314    0.0000 Cl  0  0
    5.7092   -8.7325    0.0000 Cl  0  0
    9.2924   -7.4676    0.0000 O   0  0
    8.5542   -5.4189    0.0000 C   0  0
    9.9891   -6.2317    0.0000 C   0  0
    8.5832   -7.8865    0.0000 C   0  0
    9.2675   -5.0000    0.0000 C   0  0
    9.9891   -5.4106    0.0000 C   0  0
  2  1  1  0
  3  2  1  0
  4  5  1  0
  5  1  2  0
  6  9  1  0
  7  3  1  0
  8  1  1  0
  9  8  2  0
 10  2  2  0
 11  7  2  0
 12  5  1  0
 13  9  1  0
 14 11  1  0
 15  7  1  0
 16 11  1  0
 17 14  1  0
 18 15  2  0
 19 18  1  0
  6  4  2  0
 19 16  2  0
M  END
> <COMPOUND_ID>
DNDI1417193

$$$$

  SciTegic04051205032D

 22 25  0  0  0  0            999 V2000
   10.3494   -6.4292    0.0000 N   0  0
    9.9398   -5.7161    0.0000 C   0  0
    9.9398   -7.1574    0.0000 C   0  0
    9.1206   -5.7161    0.0000 C   0  0
    8.7079   -6.4292    0.0000 C   0  0
    9.1206   -7.1361    0.0000 C   0  0
    7.8917   -6.4292    0.0000 C   0  0
    7.4850   -5.7161    0.0000 C   0  0
    6.6628   -5.7161    0.0000 N   0  0
    8.7079   -5.0000    0.0000 C   0  0
    7.8917   -5.0000    0.0000 C   0  0
   10.3676   -5.0000    0.0000 O   0  0
   10.3494   -7.8856    0.0000 O   0  0
   11.1625   -6.4110    0.0000 O   0  0
    5.0000   -5.7283    0.0000 O   0  0
    8.7079   -7.8552    0.0000 C   0  0
    7.4850   -7.1361    0.0000 C   0  0
    6.2441   -5.0000    0.0000 C   0  0
    6.2501   -6.4292    0.0000 C   0  0
    7.8917   -7.8552    0.0000 C   0  0
    5.4127   -6.4443    0.0000 C   0  0
    5.4036   -5.0000    0.0000 C   0  0
  2  1  1  0
  3  1  1  0
  4  2  1  0
  5  6  2  0
  6  3  1  0
  7  5  1  0
  8  7  1  0
  9  8  1  0
 10  4  2  0
 11 10  1  0
 12  2  2  0
 13  3  2  0
 14  1  1  0
 15 21  1  0
 16  6  1  0
 17 20  1  0
 18  9  1  0
 19  9  1  0
 20 16  2  0
 21 19  1  0
 22 18  1  0
  4  5  1  0
 11  8  2  0
 17  7  2  0
 15 22  1  0
M  END
> <COMPOUND_ID>
DNDI1417194

$$$$

  SciTegic04051205032D

 22 24  0  0  0  0            999 V2000
    9.8782   -6.7120    0.0000 N   0  0
   10.5864   -6.2925    0.0000 C   0  0
    8.3828   -6.7395    0.0000 C   0  0
    7.6745   -6.3235    0.0000 C   0  0
    6.2582   -6.3098    0.0000 C   0  0
    9.1734   -6.2925    0.0000 O   0  0
    6.9629   -6.7257    0.0000 C   0  0
   11.2945   -6.7120    0.0000 C   0  0
    6.2616   -5.4881    0.0000 C   0  0
    5.4881   -6.5573    0.0000 O   0  0
    5.4881   -5.2475    0.0000 O   0  0
    5.0000   -5.9041    0.0000 C   0  0
    8.3793   -7.6367    0.0000 O   0  0
   12.0131   -6.2925    0.0000 C   0  0
    7.6883   -5.5019    0.0000 C   0  0
    6.9802   -5.0962    0.0000 C   0  0
   10.5864   -5.4778    0.0000 N   0  0
   12.7178   -6.7120    0.0000 C   0  0
   11.2945   -7.5164    0.0000 C   0  0
   12.0131   -7.9255    0.0000 C   0  0
   12.7178   -7.5164    0.0000 C   0  0
   13.4260   -6.2925    0.0000 C   0  0
  2  1  2  0
  3  6  1  0
  4  3  1  0
  5  7  1  0
  6  1  1  0
  7  4  2  0
  8  2  1  0
  9 16  1  0
 10  5  1  0
 11  9  1  0
 12 10  1  0
 13  3  2  0
 14  8  2  0
 15  4  1  0
 16 15  2  0
 17  2  1  0
 18 14  1  0
 19  8  1  0
 20 19  2  0
 21 20  1  0
 22 18  1  0
 21 18  2  0
  5  9  2  0
 12 11  1  0
M  END
> <COMPOUND_ID>
DNDI1417195

$$$$

  SciTegic04051205032D

 22 23  0  0  0  0            999 V2000
    9.3397   -6.6451    0.0000 N   0  0
   10.0447   -6.2296    0.0000 C   0  0
    7.8456   -6.6746    0.0000 C   0  0
    7.1405   -6.2465    0.0000 C   0  0
    8.6346   -6.2296    0.0000 O   0  0
    6.4311   -6.6620    0.0000 C   0  0
    5.7260   -6.2465    0.0000 C   0  0
   10.7498   -6.6451    0.0000 C   0  0
    5.7303   -5.4364    0.0000 C   0  0
    7.8413   -7.5685    0.0000 O   0  0
    7.1405   -5.4406    0.0000 C   0  0
    6.4354   -5.0335    0.0000 C   0  0
   11.4675   -6.2296    0.0000 C   0  0
   10.7624   -7.4510    0.0000 C   0  0
   10.0447   -5.4029    0.0000 N   0  0
   12.1726   -7.4510    0.0000 C   0  0
   12.1726   -6.6325    0.0000 C   0  0
   11.4675   -7.8581    0.0000 C   0  0
   12.8777   -7.8581    0.0000 O   0  0
    5.0000   -6.6494    0.0000 C   0  0
    5.0210   -5.0000    0.0000 C   0  0
   13.5828   -7.4510    0.0000 C   0  0
  2  1  2  0
  3  5  1  0
  4  3  1  0
  5  1  1  0
  6  4  2  0
  7  6  1  0
  8  2  1  0
  9 12  1  0
 10  3  2  0
 11  4  1  0
 12 11  2  0
 13  8  2  0
 14  8  1  0
 15  2  1  0
 16 18  1  0
 17 13  1  0
 18 14  2  0
 19 16  1  0
 20  7  1  0
 21  9  1  0
 22 19  1  0
 17 16  2  0
  7  9  2  0
M  END
> <COMPOUND_ID>
DNDI1417196

$$$$

  SciTegic04051205032D

 22 23  0  0  0  0            999 V2000
    7.1499   -7.0504    0.0000 C   0  0
    6.4307   -7.4674    0.0000 C   0  0
    9.2884   -7.4674    0.0000 C   0  0
    7.8615   -7.4674    0.0000 N   0  0
    8.5807   -7.0504    0.0000 N   0  0
    5.7192   -7.0504    0.0000 N   0  0
   10.0000   -7.0504    0.0000 C   0  0
   12.1500   -5.8224    0.0000 C   0  0
   11.4307   -6.2280    0.0000 C   0  0
    7.1499   -6.2280    0.0000 O   0  0
    9.2884   -8.2938    0.0000 O   0  0
    5.7192   -8.6993    0.0000 N   0  0
   10.7192   -7.4674    0.0000 C   0  0
   10.0000   -6.2280    0.0000 C   0  0
   10.7192   -5.8224    0.0000 C   0  0
   11.4307   -7.0504    0.0000 C   0  0
    6.4307   -8.2938    0.0000 C   0  0
    5.0000   -7.4674    0.0000 C   0  0
    5.0000   -8.2938    0.0000 C   0  0
   12.1500   -5.0000    0.0000 C   0  0
   12.9763   -5.8224    0.0000 C   0  0
   12.8615   -6.2280    0.0000 C   0  0
  2  1  1  0
  3  5  1  0
  4  1  1  0
  5  4  1  0
  6  2  1  0
  7  3  1  0
  8  9  1  0
  9 16  1  0
 10  1  2  0
 11  3  2  0
 12 17  1  0
 13  7  1  0
 14  7  2  0
 15 14  1  0
 16 13  2  0
 17  2  2  0
 18  6  2  0
 19 18  1  0
 20  8  1  0
 21  8  1  0
 22  8  1  0
 19 12  2  0
  9 15  2  0
M  END
> <COMPOUND_ID>
DNDI1417197

$$$$

  SciTegic04051205032D

 21 23  0  0  0  0            999 V2000
    7.0550   -7.8740    0.0000 S   0  0
    6.4113   -6.5315    0.0000 C   0  0
    7.0550   -6.0358    0.0000 C   0  0
    6.4113   -7.3576    0.0000 C   0  0
    7.8501   -6.2217    0.0000 C   0  0
    8.3630   -5.5918    0.0000 C   0  0
    7.8501   -7.6881    0.0000 C   0  0
    6.3425   -8.5520    0.0000 O   0  0
    7.5610   -8.5830    0.0000 O   0  0
    8.1978   -6.9446    0.0000 C   0  0
    6.8794   -5.2475    0.0000 O   0  0
    9.1513   -5.7157    0.0000 C   0  0
    5.7194   -6.1391    0.0000 C   0  0
    5.7194   -7.7707    0.0000 C   0  0
    9.6745   -5.0823    0.0000 C   0  0
    9.4370   -6.4764    0.0000 C   0  0
    5.0000   -6.5315    0.0000 C   0  0
    5.0000   -7.3576    0.0000 C   0  0
   10.2459   -6.6107    0.0000 C   0  0
   10.4834   -5.2097    0.0000 C   0  0
   10.7622   -5.9739    0.0000 C   0  0
  2  4  2  0
  3  2  1  0
  4  1  1  0
  5 10  1  0
  6  5  2  0
  7  1  1  0
  8  1  2  0
  9  1  2  0
 10  7  1  0
 11  3  2  0
 12  6  1  0
 13  2  1  0
 14  4  1  0
 15 12  2  0
 16 12  1  0
 17 18  1  0
 18 14  2  0
 19 16  2  0
 20 15  1  0
 21 19  1  0
  5  3  1  0
 17 13  2  0
 20 21  2  0
M  END
> <COMPOUND_ID>
DNDI1417198

$$$$

  SciTegic04051205032D

 21 23  0  0  0  0            999 V2000
    7.7560   -6.2301    0.0000 C   0  0
    8.4776   -6.6514    0.0000 C   0  0
    7.0390   -6.6424    0.0000 C   0  0
    6.3131   -6.2301    0.0000 C   0  0
    9.1923   -6.2413    0.0000 C   0  0
    7.0301   -7.4692    0.0000 N   0  0
    7.7560   -5.4168    0.0000 C   0  0
    5.5535   -6.5684    0.0000 S   0  0
    6.3175   -7.8792    0.0000 C   0  0
    9.9048   -6.6514    0.0000 N   0  0
    6.2167   -5.4122    0.0000 C   0  0
    5.0000   -5.9500    0.0000 C   0  0
    9.1923   -5.4122    0.0000 C   0  0
    8.4776   -5.0045    0.0000 C   0  0
    5.4033   -5.2509    0.0000 C   0  0
    5.6005   -7.4647    0.0000 O   0  0
    8.4776   -7.4692    0.0000 O   0  0
   10.6174   -6.2301    0.0000 C   0  0
    6.3131   -8.7083    0.0000 C   0  0
    9.9048   -5.0000    0.0000 C   0  0
   10.6174   -5.4168    0.0000 C   0  0
  2  1  1  0
  3  1  1  0
  4  3  1  0
  5  2  2  0
  6  3  1  0
  7  1  2  0
  8  4  1  0
  9  6  1  0
 10  5  1  0
 11  4  2  0
 12  8  1  0
 13 14  2  0
 14  7  1  0
 15 11  1  0
 16  9  2  0
 17  2  1  0
 18 10  2  0
 19  9  1  0
 20 13  1  0
 21 20  2  0
 13  5  1  0
 12 15  2  0
 21 18  1  0
M  END
> <COMPOUND_ID>
DNDI1417199

$$$$

  SciTegic04051205032D

 21 23  0  0  0  0            999 V2000
    5.9018   -7.4381    0.0000 C   0  0
    6.6759   -7.7346    0.0000 N   0  0
    5.6876   -6.6105    0.0000 C   0  0
    5.3706   -8.0516    0.0000 S   0  0
    5.8030   -8.7352    0.0000 C   0  0
    6.6141   -8.5252    0.0000 C   0  0
    6.2806   -6.0175    0.0000 C   0  0
    5.5888   -9.5464    0.0000 C   0  0
    7.1865   -9.1182    0.0000 C   0  0
    6.0624   -5.2475    0.0000 O   0  0
    8.6565   -6.6352    0.0000 N   0  0
    7.0712   -6.2234    0.0000 C   0  0
    6.1736  -10.1393    0.0000 C   0  0
    6.9724   -9.9211    0.0000 C   0  0
    7.5159   -7.7552    0.0000 C   0  0
    5.9883  -10.7488    0.0000 O   0  0
    8.0883   -7.2281    0.0000 C   0  0
    8.4547   -5.8404    0.0000 C   0  0
    7.2853   -7.0263    0.0000 C   0  0
    7.6436   -5.6304    0.0000 C   0  0
    5.0000  -10.7982    0.0000 C   0  0
  2  1  1  0
  3  1  2  0
  4  1  1  0
  5  4  1  0
  6  2  1  0
  7  3  1  0
  8  5  1  0
  9  6  1  0
 10  7  2  0
 11 18  1  0
 12  7  1  0
 13  8  2  0
 14  9  2  0
 15  2  1  0
 16 13  1  0
 17 19  1  0
 18 20  2  0
 19 12  2  0
 20 12  1  0
 21 16  1  0
  5  6  2  0
 13 14  1  0
 17 11  2  0
M  END
> <COMPOUND_ID>
DNDI1417200

$$$$

  SciTegic04051205032D

 22 25  0  0  0  0            999 V2000
    6.4957   -6.6986    0.0000 C   0  0
    7.2143   -7.1009    0.0000 C   0  0
    8.6412   -7.1009    0.0000 N   0  0
    9.3667   -6.6986    0.0000 C   0  0
    7.9295   -6.6883    0.0000 O   0  0
    7.2349   -6.3204    0.0000 C   0  0
    5.6361   -6.5336    0.0000 C   0  0
    5.9903   -6.1141    0.0000 C   0  0
    5.5604   -5.7187    0.0000 C   0  0
    5.8940   -5.3645    0.0000 C   0  0
    7.1559   -5.5193    0.0000 C   0  0
    7.2143   -7.9398    0.0000 O   0  0
   10.0750   -7.1181    0.0000 C   0  0
    5.0000   -5.1101    0.0000 C   0  0
    6.5988   -5.0000    0.0000 C   0  0
    6.3237   -5.3233    0.0000 C   0  0
    9.3667   -5.8734    0.0000 N   0  0
   10.7902   -6.6986    0.0000 C   0  0
   10.0750   -7.9398    0.0000 C   0  0
   10.7902   -8.3456    0.0000 C   0  0
   11.5089   -7.1181    0.0000 C   0  0
   11.5089   -7.9398    0.0000 C   0  0
  2  1  1  0
  3  5  1  0
  4  3  2  0
  5  2  1  0
  6  1  1  0
  7  1  1  0
  8  1  1  0
  9  7  1  0
 10  8  1  0
 11  6  1  0
 12  2  2  0
 13  4  1  0
 14 10  1  0
 15 10  1  0
 16  9  1  0
 17  4  1  0
 18 13  2  0
 19 13  1  0
 20 19  2  0
 21 18  1  0
 22 20  1  0
 11 15  1  0
 14  9  1  0
 11 16  1  0
 21 22  2  0
M  END
> <COMPOUND_ID>
DNDI1417201

$$$$

  SciTegic04051205032D

 19 22  0  0  0  0            999 V2000
    7.7668   -6.6761    0.0000 N   0  0
    8.1685   -5.9543    0.0000 C   0  0
    8.9805   -5.9564    0.0000 C   0  0
    6.8732   -6.6761    0.0000 C   0  0
    8.1621   -7.3807    0.0000 N   0  0
    9.3994   -6.6782    0.0000 C   0  0
    8.9805   -7.3807    0.0000 C   0  0
    6.3898   -7.4129    0.0000 C   0  0
    6.1428   -6.9360    0.0000 C   0  0
    6.8732   -5.8791    0.0000 C   0  0
    7.7432   -5.2755    0.0000 O   0  0
    6.0805   -5.4538    0.0000 C   0  0
    5.6616   -7.0563    0.0000 C   0  0
    5.3952   -6.5987    0.0000 C   0  0
    9.3801   -5.2475    0.0000 Cl  0  0
    5.6616   -6.2056    0.0000 C   0  0
    5.3952   -5.7481    0.0000 C   0  0
    5.0000   -7.3721    0.0000 C   0  0
   10.2308   -6.6847    0.0000 Cl  0  0
  2  1  1  0
  3  2  1  0
  4  1  1  0
  5  1  1  0
  6  7  1  0
  7  5  2  0
  8  4  1  0
  9  4  1  0
 10  4  1  0
 11  2  2  0
 12 10  1  0
 13  8  1  0
 14  9  1  0
 15  3  1  0
 16 13  1  0
 17 12  1  0
 18 13  1  0
 19  6  1  0
  6  3  2  0
 16 12  1  0
 18 14  1  0
 17 14  1  0
M  END
> <COMPOUND_ID>
DNDI1417202

$$$$

  SciTegic04051205032D

 22 23  0  0  0  0            999 V2000
   11.4080   -6.2516    0.0000 N   0  0
    9.9727   -6.2516    0.0000 C   0  0
   12.1256   -6.6597    0.0000 C   0  0
   10.6971   -6.6597    0.0000 N   0  0
   12.8467   -6.2516    0.0000 C   0  0
   13.5542   -6.6597    0.0000 N   0  0
    9.9727   -5.4081    0.0000 O   0  0
    9.2584   -6.6597    0.0000 C   0  0
    8.5645   -6.2516    0.0000 O   0  0
    7.8401   -6.6597    0.0000 C   0  0
    6.4320   -7.4965    0.0000 C   0  0
    7.1326   -6.2516    0.0000 C   0  0
    7.8401   -7.4760    0.0000 C   0  0
    6.4320   -6.6597    0.0000 C   0  0
    7.1462   -7.9046    0.0000 C   0  0
    5.7177   -7.9046    0.0000 O   0  0
   12.1256   -7.4760    0.0000 C   0  0
   14.2786   -6.2516    0.0000 C   0  0
   12.8467   -5.4081    0.0000 C   0  0
    5.0000   -7.4965    0.0000 C   0  0
   14.2786   -5.4081    0.0000 C   0  0
   13.5542   -5.0000    0.0000 C   0  0
  2  4  1  0
  3  1  2  0
  4  1  1  0
  5  3  1  0
  6  5  1  0
  7  2  2  0
  8  2  1  0
  9  8  1  0
 10  9  1  0
 11 15  1  0
 12 10  2  0
 13 10  1  0
 14 12  1  0
 15 13  2  0
 16 11  1  0
 17  3  1  0
 18  6  2  0
 19  5  2  0
 20 16  1  0
 21 22  2  0
 22 19  1  0
 21 18  1  0
 11 14  2  0
M  END
> <COMPOUND_ID>
DNDI1417203

$$$$

  SciTegic04051205032D

 22 24  0  0  0  0            999 V2000
    8.2572   -7.1165    0.0000 C   0  0
    8.3465   -7.9377    0.0000 N   0  0
    7.5425   -6.7042    0.0000 C   0  0
    9.1539   -8.1094    0.0000 C   0  0
    6.7935   -7.0409    0.0000 O   0  0
    7.4566   -5.8830    0.0000 C   0  0
    9.0130   -6.7832    0.0000 N   0  0
    6.2369   -6.4293    0.0000 C   0  0
    6.6492   -5.7147    0.0000 C   0  0
    9.5662   -8.8241    0.0000 C   0  0
    9.5662   -7.3948    0.0000 O   0  0
   10.3908   -8.8241    0.0000 N   0  0
    5.4123   -6.4293    0.0000 C   0  0
    9.1539   -9.5388    0.0000 O   0  0
    8.1713   -5.4707    0.0000 C   0  0
    6.2369   -5.0000    0.0000 C   0  0
   10.8032   -9.5388    0.0000 C   0  0
    5.4123   -5.0000    0.0000 C   0  0
    5.0000   -5.7147    0.0000 C   0  0
    5.0000   -7.1440    0.0000 C   0  0
   11.6278   -9.5388    0.0000 C   0  0
   10.3908  -10.2534    0.0000 C   0  0
  2  1  1  0
  3  1  1  0
  4  2  2  0
  5  3  1  0
  6  3  2  0
  7  1  2  0
  8  5  1  0
  9  6  1  0
 10  4  1  0
 11  7  1  0
 12 10  1  0
 13  8  2  0
 14 10  2  0
 15  6  1  0
 16  9  2  0
 17 12  1  0
 18 16  1  0
 19 13  1  0
 20 13  1  0
 21 17  1  0
 22 17  1  0
 11  4  1  0
  9  8  1  0
 18 19  2  0
M  END
> <COMPOUND_ID>
DNDI1417204

$$$$

  SciTegic04051205032D

 23 26  0  0  0  0            999 V2000
    8.7176   -7.1380    0.0000 C   0  0
    7.8974   -7.1380    0.0000 N   0  0
   10.3555   -7.1380    0.0000 N   0  0
    9.1278   -7.8524    0.0000 C   0  0
    9.1278   -6.4209    0.0000 C   0  0
    7.4951   -7.8524    0.0000 C   0  0
    9.9454   -7.8524    0.0000 C   0  0
    9.9454   -6.4209    0.0000 C   0  0
    7.8974   -8.5695    0.0000 O   0  0
    6.6617   -7.8524    0.0000 C   0  0
    5.0000   -7.8524    0.0000 N   0  0
    8.7071   -5.7039    0.0000 C   0  0
    8.7017   -8.5695    0.0000 C   0  0
   10.3661   -5.7039    0.0000 C   0  0
   10.3555   -8.5695    0.0000 C   0  0
    5.4101   -7.1380    0.0000 C   0  0
    5.4101   -8.5695    0.0000 C   0  0
    6.2515   -7.1380    0.0000 C   0  0
    6.2330   -8.5695    0.0000 C   0  0
    9.1172   -5.0000    0.0000 C   0  0
    9.1172   -9.2733    0.0000 C   0  0
    9.9454   -5.0000    0.0000 C   0  0
    9.9454   -9.2733    0.0000 C   0  0
  2  1  1  0
  3  8  1  0
  4  1  2  0
  5  1  1  0
  6  2  1  0
  7  4  1  0
  8  5  2  0
  9  6  2  0
 10  6  1  0
 11 16  2  0
 12  5  1  0
 13  4  1  0
 14  8  1  0
 15  7  1  0
 16 18  1  0
 17 19  2  0
 18 10  2  0
 19 10  1  0
 20 12  2  0
 21 13  2  0
 22 20  1  0
 23 21  1  0
  3  7  2  0
 22 14  2  0
 23 15  2  0
 11 17  1  0
M  END
> <COMPOUND_ID>
DNDI1417205

$$$$

  SciTegic04051205032D

 21 22  0  0  0  0            999 V2000
    7.8582   -8.1307    0.0000 C   0  0
    8.5749   -7.7182    0.0000 C   0  0
    9.2873   -8.1307    0.0000 C   0  0
    9.2831   -8.9598    0.0000 C   0  0
    7.8582   -8.9515    0.0000 C   0  0
    8.5666   -9.3681    0.0000 N   0  0
    7.1416   -7.7182    0.0000 C   0  0
    9.9998   -7.7182    0.0000 C   0  0
   10.7165   -7.3057    0.0000 N   0  0
    9.9998   -9.3723    0.0000 S   0  0
    8.5749   -6.9016    0.0000 C   0  0
    7.1457   -6.8932    0.0000 O   0  0
    8.5707   -5.2475    0.0000 N   0  0
    6.4291   -8.1266    0.0000 O   0  0
    7.1374   -9.3598    0.0000 C   0  0
    9.2873   -5.6557    0.0000 C   0  0
    7.8582   -5.6599    0.0000 C   0  0
    9.2915   -6.4849    0.0000 C   0  0
    7.8582   -6.4849    0.0000 C   0  0
    5.7167   -7.7141    0.0000 C   0  0
    5.0000   -8.1224    0.0000 C   0  0
  2  1  1  0
  3  2  2  0
  4  6  1  0
  5  1  2  0
  6  5  1  0
  7  1  1  0
  8  3  1  0
  9  8  3  0
 10  4  2  0
 11  2  1  0
 12  7  2  0
 13 16  2  0
 14  7  1  0
 15  5  1  0
 16 18  1  0
 17 19  2  0
 18 11  2  0
 19 11  1  0
 20 14  1  0
 21 20  1  0
  4  3  1  0
 13 17  1  0
M  END
> <COMPOUND_ID>
DNDI1417206

$$$$

  SciTegic04051205032D

 21 23  0  0  0  0            999 V2000
    5.8203   -7.8772    0.0000 S   0  0
    6.2305   -8.6002    0.0000 C   0  0
    6.5404   -7.4670    0.0000 N   0  0
    6.5404   -6.6467    0.0000 C   0  0
    7.2486   -6.2365    0.0000 C   0  0
    5.4072   -7.1571    0.0000 O   0  0
    5.1121   -8.2903    0.0000 O   0  0
    5.8203   -9.3084    0.0000 C   0  0
    7.9568   -6.6467    0.0000 N   0  0
    7.2486   -5.4131    0.0000 C   0  0
    5.0000   -9.3084    0.0000 N   0  0
    7.0686   -8.6002    0.0000 C   0  0
    5.8203   -6.2365    0.0000 C   0  0
    5.8203   -5.4131    0.0000 C   0  0
    8.6828   -6.2365    0.0000 C   0  0
    6.5404   -5.0000    0.0000 C   0  0
    6.2305  -10.0166    0.0000 C   0  0
    7.9568   -5.0000    0.0000 C   0  0
    7.4788   -9.3084    0.0000 C   0  0
    8.6828   -5.4131    0.0000 C   0  0
    7.0686  -10.0166    0.0000 C   0  0
  2  1  1  0
  3  1  1  0
  4  3  1  0
  5  4  1  0
  6  1  2  0
  7  1  2  0
  8  2  2  0
  9  5  1  0
 10  5  2  0
 11  8  1  0
 12  2  1  0
 13  4  2  0
 14 13  1  0
 15  9  2  0
 16 14  2  0
 17  8  1  0
 18 10  1  0
 19 12  2  0
 20 18  2  0
 21 19  1  0
 21 17  2  0
 10 16  1  0
 20 15  1  0
M  END
> <COMPOUND_ID>
DNDI1417207

$$$$

  SciTegic04051205032D

 23 26  0  0  0  0            999 V2000
    7.9004   -8.7231    0.0000 N   0  3
    7.9004   -7.8952    0.0000 N   0  0
    7.1766   -7.4838    0.0000 C   0  0
    7.1766   -9.1293    0.0000 N   0  0
    6.4477   -7.8952    0.0000 C   0  0
    6.4477   -8.7231    0.0000 C   0  0
    7.1766   -6.6611    0.0000 N   0  0
    8.6138   -9.1240    0.0000 C   0  0
    6.4633   -6.2497    0.0000 C   0  0
    5.7238   -7.4838    0.0000 C   0  0
    5.7238   -9.1293    0.0000 C   0  0
    8.6346   -9.9416    0.0000 C   0  0
    9.3011   -8.7075    0.0000 C   0  0
    5.7498   -6.6611    0.0000 C   0  0
    6.4633   -5.4218    0.0000 C   0  0
    5.0000   -7.8952    0.0000 C   0  0
    5.0000   -8.7231    0.0000 C   0  0
    9.3480  -10.3165    0.0000 C   0  0
   10.0093   -9.0824    0.0000 C   0  0
    5.0261   -6.2497    0.0000 C   0  0
    5.7498   -5.0000    0.0000 C   0  0
    5.0261   -5.4114    0.0000 C   0  0
   10.0562   -9.8791    0.0000 C   0  0
  2  1  1  0
  3  2  2  0
  4  1  2  0
  5  6  2  0
  6  4  1  0
  7  3  1  0
  8  1  1  0
  9  7  1  0
 10  5  1  0
 11  6  1  0
 12  8  2  0
 13  8  1  0
 14  9  1  0
 15  9  2  0
 16 17  1  0
 17 11  2  0
 18 12  1  0
 19 13  2  0
 20 14  2  0
 21 15  1  0
 22 21  2  0
 23 19  1  0
  5  3  1  0
 23 18  2  0
 16 10  2  0
 22 20  1  0
M  CHG  1   1   1
M  END
> <COMPOUND_ID>
DNDI1417208

$$$$

  SciTegic04051205032D

 22 25  0  0  0  0            999 V2000
    7.1069   -6.0674    0.0000 C   0  0
    7.8237   -6.4747    0.0000 C   0  0
    9.9632   -6.0674    0.0000 C   0  0
    9.2518   -6.4747    0.0000 N   0  0
   10.6800   -6.4747    0.0000 C   0  0
    8.5350   -6.0566    0.0000 O   0  0
    7.0960   -6.8820    0.0000 C   0  0
    6.2870   -5.7959    0.0000 C   0  0
    6.6019   -5.4864    0.0000 C   0  0
    5.8688   -5.7851    0.0000 C   0  0
    5.4941   -6.1109    0.0000 C   0  0
    6.3304   -7.1806    0.0000 C   0  0
    7.8237   -7.3001    0.0000 O   0  0
   12.1081   -6.4855    0.0000 N   0  0
    5.0000   -5.4430    0.0000 C   0  0
    5.8797   -6.5399    0.0000 C   0  0
    5.4941   -6.9254    0.0000 C   0  0
    9.9632   -5.2475    0.0000 N   0  0
   11.3913   -6.0674    0.0000 C   0  0
   10.6800   -7.3001    0.0000 C   0  0
   12.1081   -7.3109    0.0000 C   0  0
   11.3913   -7.7182    0.0000 C   0  0
  2  1  1  0
  3  4  2  0
  4  6  1  0
  5  3  1  0
  6  2  1  0
  7  1  1  0
  8  1  1  0
  9  1  1  0
 10  9  1  0
 11  8  1  0
 12  7  1  0
 13  2  2  0
 14 19  1  0
 15 10  1  0
 16 10  1  0
 17 11  1  0
 18  3  1  0
 19  5  2  0
 20  5  1  0
 21 22  1  0
 22 20  2  0
 12 16  1  0
 11 15  1  0
 12 17  1  0
 14 21  2  0
M  END
> <COMPOUND_ID>
DNDI1417209

$$$$

  SciTegic04051205032D

 21 23  0  0  0  0            999 V2000
    7.7236   -7.9197    0.0000 C   0  0
    7.2292   -8.6189    0.0000 N   0  0
    7.2292   -7.2615    0.0000 S   0  0
    8.5720   -7.9197    0.0000 C   0  0
    6.4539   -8.3439    0.0000 C   0  0
    8.9874   -7.1971    0.0000 C   0  0
    6.4539   -7.4897    0.0000 C   0  0
    9.7890   -7.1854    0.0000 C   0  0
   10.2278   -6.4482    0.0000 C   0  0
    8.9611   -5.7578    0.0000 C   0  0
    8.5720   -6.4950    0.0000 C   0  0
   11.0411   -6.4482    0.0000 O   0  0
    9.7890   -5.7578    0.0000 C   0  0
    7.5159   -9.4322    0.0000 C   0  0
    5.7255   -8.7739    0.0000 C   0  0
    5.7255   -7.1064    0.0000 C   0  0
    8.4286   -5.3072    0.0000 C   0  0
    9.2858   -5.0000    0.0000 C   0  0
    8.3116   -9.5843    0.0000 C   0  0
    5.0000   -8.3439    0.0000 C   0  0
    5.0000   -7.5306    0.0000 C   0  0
  2  1  1  0
  3  1  1  0
  4  1  2  0
  5  2  1  0
  6  4  1  0
  7  3  1  0
  8  6  2  0
  9  8  1  0
 10 11  1  0
 11  6  1  0
 12  9  2  0
 13  9  1  0
 14  2  1  0
 15  5  1  0
 16  7  1  0
 17 10  1  0
 18 10  1  0
 19 14  1  0
 20 15  2  0
 21 16  2  0
  7  5  2  0
 21 20  1  0
 13 10  1  0
M  END
> <COMPOUND_ID>
DNDI1417210

$$$$

  SciTegic04051205032D

 22 24  0  0  0  0            999 V2000
    7.7164   -5.8218    0.0000 C   0  0
    7.2281   -6.5026    0.0000 N   0  0
    7.2213   -5.1513    0.0000 N   0  0
    6.4373   -6.2551    0.0000 C   0  0
    6.4338   -5.4195    0.0000 C   0  0
    8.5416   -5.8149    0.0000 C   0  0
    8.9542   -6.5267    0.0000 N   0  0
    7.6339   -7.2041    0.0000 C   0  0
    7.2316   -7.9158    0.0000 C   0  0
    8.5416   -7.2350    0.0000 C   0  0
    9.7692   -6.5233    0.0000 C   0  0
    5.7118   -6.6608    0.0000 C   0  0
    5.7118   -5.0000    0.0000 C   0  0
    8.9508   -5.0998    0.0000 C   0  0
    7.6442   -8.6276    0.0000 C   0  0
    8.9542   -7.9468    0.0000 C   0  0
   10.1818   -7.2350    0.0000 C   0  0
    7.2316   -9.3359    0.0000 C   0  0
    8.4660   -8.6173    0.0000 C   0  0
    5.0000   -6.2551    0.0000 C   0  0
    5.0000   -5.4195    0.0000 C   0  0
    9.7760   -7.9468    0.0000 C   0  0
  2  1  1  0
  3  1  2  0
  4  2  1  0
  5  3  1  0
  6  1  1  0
  7  6  1  0
  8  2  1  0
  9  8  1  0
 10  7  1  0
 11  7  1  0
 12  4  2  0
 13  5  2  0
 14  6  1  0
 15  9  1  0
 16 10  1  0
 17 11  1  0
 18 15  1  0
 19 15  1  0
 20 12  1  0
 21 13  1  0
 22 17  1  0
  4  5  1  0
 20 21  2  0
 22 16  1  0
M  END
> <COMPOUND_ID>
DNDI1417211

$$$$

  SciTegic04051205032D

 19 20  0  0  0  0            999 V2000
    7.9913   -7.5684    0.0000 N   0  0
    9.2669   -7.9878    0.0000 C   0  0
    8.4761   -8.2389    0.0000 C   0  0
    8.4761   -6.9116    0.0000 C   0  0
    9.2669   -7.1661    0.0000 S   0  0
    9.9306   -8.4726    0.0000 C   0  0
    8.2251   -6.1277    0.0000 N   0  0
    6.0624   -6.3959    0.0000 C   0  0
    6.8704   -6.5678    0.0000 C   0  0
    7.4171   -5.9523    0.0000 C   0  0
    5.8080   -5.6119    0.0000 C   0  0
    8.2251   -9.0297    0.0000 N   0  0
   10.6835   -8.1357    0.0000 O   0  0
    6.3546   -5.0000    0.0000 C   0  0
    5.5088   -7.0114    0.0000 Cl  0  0
    7.1661   -5.1684    0.0000 C   0  0
    5.0000   -5.4366    0.0000 F   0  0
    9.8480   -9.2910    0.0000 C   0  0
   10.5150   -9.7758    0.0000 C   0  0
  2  3  2  0
  3  1  1  0
  4  1  2  0
  5  4  1  0
  6  2  1  0
  7  4  1  0
  8  9  1  0
  9 10  2  0
 10  7  1  0
 11 14  1  0
 12  3  1  0
 13  6  2  0
 14 16  2  0
 15  8  1  0
 16 10  1  0
 17 11  1  0
 18  6  1  0
 19 18  1  0
  2  5  1  0
  8 11  2  0
M  END
> <COMPOUND_ID>
DNDI1417212

$$$$

  SciTegic04051205032D

 21 23  0  0  0  0            999 V2000
    5.8203   -7.8772    0.0000 S   0  0
    6.2305   -8.6002    0.0000 C   0  0
    6.5404   -7.4670    0.0000 N   0  0
    6.5404   -6.6467    0.0000 C   0  0
    7.2486   -6.2365    0.0000 C   0  0
    5.4072   -7.1571    0.0000 O   0  0
    5.1121   -8.2903    0.0000 O   0  0
    7.9568   -6.6467    0.0000 N   0  0
    5.8203   -9.3084    0.0000 C   0  0
    7.2486   -5.4131    0.0000 C   0  0
    7.0686   -8.6002    0.0000 C   0  0
    5.0000   -9.3084    0.0000 O   0  0
    5.8203   -6.2365    0.0000 C   0  0
    5.8203   -5.4131    0.0000 C   0  0
    8.6828   -6.2365    0.0000 C   0  0
    6.5404   -5.0000    0.0000 C   0  0
    6.2305  -10.0166    0.0000 C   0  0
    7.9568   -5.0000    0.0000 C   0  0
    7.4788   -9.3084    0.0000 C   0  0
    8.6828   -5.4131    0.0000 C   0  0
    7.0686  -10.0166    0.0000 C   0  0
  2  1  1  0
  3  1  1  0
  4  3  1  0
  5  4  1  0
  6  1  2  0
  7  1  2  0
  8  5  1  0
  9  2  2  0
 10  5  2  0
 11  2  1  0
 12  9  1  0
 13  4  2  0
 14 13  1  0
 15  8  2  0
 16 14  2  0
 17  9  1  0
 18 10  1  0
 19 11  2  0
 20 18  2  0
 21 19  1  0
 17 21  2  0
 16 10  1  0
 15 20  1  0
M  END
> <COMPOUND_ID>
DNDI1417213

$$$$

  SciTegic04051205032D

 22 24  0  0  0  0            999 V2000
    8.5966   -7.3304    0.0000 C   0  0
    6.4443   -7.7391    0.0000 N   0  0
    7.8846   -7.7391    0.0000 C   0  0
    9.3046   -7.7391    0.0000 N   0  0
   11.4609   -6.5050    0.0000 C   0  0
    8.6087   -6.5334    0.0000 O   0  0
    7.1523   -7.3304    0.0000 C   0  0
   11.4609   -7.3304    0.0000 C   0  0
   10.7530   -6.0843    0.0000 C   0  0
   10.0369   -7.3304    0.0000 C   0  0
   12.1892   -6.0843    0.0000 C   0  0
   10.0369   -6.5050    0.0000 C   0  0
   10.7530   -7.7391    0.0000 C   0  0
    5.7282   -7.3304    0.0000 C   0  0
    6.4443   -8.5644    0.0000 C   0  0
   12.9620   -6.3271    0.0000 C   0  0
   12.1892   -5.2306    0.0000 C   0  0
    5.0000   -7.7391    0.0000 C   0  0
    5.7282   -8.9851    0.0000 C   0  0
   13.4353   -5.6515    0.0000 C   0  0
   12.9620   -5.0000    0.0000 C   0  0
    5.0000   -8.5644    0.0000 C   0  0
  2  7  1  0
  3  1  1  0
  4  1  1  0
  5  9  2  0
  6  1  2  0
  7  3  1  0
  8 13  2  0
  9 12  1  0
 10  4  1  0
 11  5  1  0
 12 10  2  0
 13 10  1  0
 14  2  1  0
 15  2  1  0
 16 11  1  0
 17 11  1  0
 18 14  1  0
 19 15  1  0
 20 16  1  0
 21 17  1  0
 22 19  1  0
  8  5  1  0
 22 18  1  0
 20 21  1  0
M  END
> <COMPOUND_ID>
DNDI1417214

$$$$

  SciTegic04051205032D

 22 23  0  0  0  0            999 V2000
    7.8352   -6.4881    0.0000 C   0  0
   10.7461   -6.4572    0.0000 C   0  0
    8.5432   -6.9074    0.0000 C   0  0
   10.0381   -6.8558    0.0000 N   0  0
    7.1273   -6.9074    0.0000 C   0  0
    9.3302   -6.4572    0.0000 O   0  0
    7.8352   -5.6702    0.0000 C   0  0
    6.4193   -6.4744    0.0000 C   0  0
   11.4541   -6.8558    0.0000 C   0  0
   12.1551   -6.4469    0.0000 N   0  0
    8.5295   -7.7975    0.0000 O   0  0
   10.7461   -5.6393    0.0000 N   0  0
    6.4193   -5.6564    0.0000 C   0  0
    7.1410   -5.2716    0.0000 C   0  0
    7.1273   -7.7219    0.0000 O   0  0
    5.7114   -5.2475    0.0000 O   0  0
   12.8734   -6.8558    0.0000 C   0  0
   11.4541   -7.6738    0.0000 C   0  0
    6.4056   -8.1102    0.0000 C   0  0
    5.0000   -5.6530    0.0000 C   0  0
   12.8734   -7.6738    0.0000 C   0  0
   12.1654   -8.0930    0.0000 C   0  0
  2  4  2  0
  3  1  1  0
  4  6  1  0
  5  1  1  0
  6  3  1  0
  7  1  2  0
  8  5  2  0
  9  2  1  0
 10  9  2  0
 11  3  2  0
 12  2  1  0
 13 14  2  0
 14  7  1  0
 15  5  1  0
 16 13  1  0
 17 10  1  0
 18  9  1  0
 19 15  1  0
 20 16  1  0
 21 22  1  0
 22 18  2  0
  8 13  1  0
 17 21  2  0
M  END
> <COMPOUND_ID>
DNDI1417215

$$$$

  SciTegic04051205032D

 22 24  0  0  0  0            999 V2000
    7.8323   -7.7154    0.0000 N   0  0
    7.1243   -7.3030    0.0000 C   0  0
    7.9183   -8.5301    0.0000 C   0  0
    7.1243   -6.4849    0.0000 N   0  0
    8.5817   -7.3786    0.0000 N   0  0
    6.4162   -7.7121    0.0000 N   0  0
    8.7158   -8.6985    0.0000 C   0  0
    7.3855   -9.2451    0.0000 N   0  0
    6.4162   -6.0621    0.0000 C   0  0
    5.7081   -6.4849    0.0000 C   0  0
    6.5640   -9.1523    0.0000 C   0  0
    5.7081   -7.3030    0.0000 C   0  0
    9.1283   -7.9870    0.0000 C   0  0
    6.2374   -8.3857    0.0000 O   0  0
    6.4162   -5.2475    0.0000 O   0  0
    6.0793   -9.8260    0.0000 C   0  0
    5.0000   -7.7154    0.0000 C   0  0
    9.9463   -7.9011    0.0000 C   0  0
    5.2475   -9.8157    0.0000 C   0  0
    6.3303  -10.5994    0.0000 C   0  0
    5.6703  -11.0944    0.0000 C   0  0
    5.0000  -10.5994    0.0000 C   0  0
  2  1  1  0
  3  1  1  0
  4  2  1  0
  5  1  1  0
  6  2  2  0
  7  3  2  0
  8  3  1  0
  9  4  1  0
 10 12  2  0
 11  8  1  0
 12  6  1  0
 13  5  2  0
 14 11  2  0
 15  9  2  0
 16 11  1  0
 17 12  1  0
 18 13  1  0
 19 16  1  0
 20 16  1  0
 21 20  1  0
 22 19  1  0
  7 13  1  0
  9 10  1  0
 21 22  1  0
M  END
> <COMPOUND_ID>
DNDI1417216

$$$$

  SciTegic04051205032D

 22 23  0  0  0  0            999 V2000
    9.3139  -11.2081    0.0000 C   0  0
    8.6059  -10.7956    0.0000 C   0  0
   10.0324  -10.7956    0.0000 C   0  0
   10.0324   -9.9774    0.0000 C   0  0
    8.6059   -9.9774    0.0000 C   0  0
    7.8737   -9.5305    0.0000 O   0  0
    7.1243   -8.3034    0.0000 C   0  0
    6.4196   -7.0487    0.0000 N   0  0
    7.1243   -7.4474    0.0000 C   0  0
    7.8427   -8.7125    0.0000 C   0  0
    9.3139   -9.5649    0.0000 C   0  0
    6.4196   -8.7125    0.0000 O   0  0
    9.3139  -12.0261    0.0000 C   0  0
    6.4196   -6.2272    0.0000 C   0  0
    5.7081   -7.4474    0.0000 C   0  0
   10.7440  -11.2081    0.0000 C   0  0
    5.7081   -8.3034    0.0000 C   0  0
    5.7081   -5.8181    0.0000 C   0  0
    5.7081   -5.0000    0.0000 C   0  0
    5.0000   -8.7125    0.0000 C   0  0
   10.0324  -12.4386    0.0000 C   0  0
   10.7440  -12.0261    0.0000 C   0  0
  2  1  1  0
  3  1  2  0
  4  3  1  0
  5  2  2  0
  6  5  1  0
  7 10  1  0
  8  9  1  0
  9  7  1  0
 10  6  1  0
 11  4  2  0
 12  7  1  0
 13  1  1  0
 14  8  1  0
 15  8  1  0
 16  3  1  0
 17 15  1  0
 18 14  1  0
 19 18  1  0
 20 17  1  0
 21 13  2  0
 22 21  1  0
 16 22  2  0
 11  5  1  0
M  END
> <COMPOUND_ID>
DNDI1417217

$$$$

  SciTegic04051205032D

 21 23  0  0  0  0            999 V2000
    8.5715   -6.2461    0.0000 N   0  0
    7.8589   -6.6628    0.0000 C   0  0
    8.5715   -5.4209    0.0000 C   0  0
    7.1421   -6.2461    0.0000 C   0  0
    7.8589   -5.0000    0.0000 O   0  0
    7.1421   -5.4209    0.0000 C   0  0
    9.2842   -6.6628    0.0000 C   0  0
    9.2842   -5.0083    0.0000 O   0  0
    7.8589   -7.4838    0.0000 O   0  0
    6.4211   -6.6628    0.0000 C   0  0
   10.0010   -6.2461    0.0000 C   0  0
    6.4211   -5.0083    0.0000 C   0  0
    5.7168   -6.2461    0.0000 C   0  0
    5.7168   -5.4209    0.0000 C   0  0
    5.0000   -6.6628    0.0000 Cl  0  0
    9.2842   -7.4838    0.0000 C   0  0
   10.0052   -5.4209    0.0000 C   0  0
   10.7095   -6.6628    0.0000 C   0  0
   10.7179   -5.0083    0.0000 C   0  0
   10.0010   -7.8964    0.0000 C   0  0
   10.7095   -7.4838    0.0000 C   0  0
  2  1  1  0
  3  1  1  0
  4  2  1  0
  5  3  1  0
  6  5  1  0
  7  1  1  0
  8  3  2  0
  9  2  2  0
 10  4  2  0
 11  7  1  0
 12  6  2  0
 13 10  1  0
 14 12  1  0
 15 13  1  0
 16  7  2  0
 17 11  1  0
 18 11  2  0
 19 17  1  0
 20 16  1  0
 21 20  2  0
  6  4  1  0
 21 18  1  0
 14 13  2  0
M  END
> <COMPOUND_ID>
DNDI1417218

$$$$

  SciTegic04051205032D

 21 22  0  0  0  0            999 V2000
   10.5932   -6.1559    0.0000 C   0  0
    9.8443   -6.5845    0.0000 N   0  0
    8.3637   -6.5845    0.0000 C   0  0
    7.6884   -6.1905    0.0000 C   0  0
   11.3248   -6.5931    0.0000 C   0  0
    7.0130   -6.5715    0.0000 C   0  0
    9.1040   -6.1559    0.0000 O   0  0
   10.5975   -5.3074    0.0000 O   0  0
    8.3593   -7.4373    0.0000 O   0  0
   12.0781   -6.1689    0.0000 C   0  0
   11.3248   -7.4416    0.0000 C   0  0
   12.8140   -7.4546    0.0000 C   0  0
    6.3507   -6.1689    0.0000 C   0  0
   12.8270   -6.6061    0.0000 C   0  0
   12.0651   -7.8832    0.0000 C   0  0
   13.5586   -7.8832    0.0000 Cl  0  0
    5.6753   -6.5585    0.0000 C   0  0
    6.3507   -5.3896    0.0000 C   0  0
    5.6883   -5.0000    0.0000 C   0  0
    5.0000   -6.1559    0.0000 C   0  0
    5.0000   -5.3767    0.0000 C   0  0
  2  1  1  0
  3  7  1  0
  4  3  1  0
  5  1  1  0
  6  4  2  0
  7  2  1  0
  8  1  2  0
  9  3  2  0
 10  5  1  0
 11  5  2  0
 12 15  2  0
 13  6  1  0
 14 10  2  0
 15 11  1  0
 16 12  1  0
 17 13  2  0
 18 13  1  0
 19 18  2  0
 20 17  1  0
 21 19  1  0
 14 12  1  0
 20 21  2  0
M  END
> <COMPOUND_ID>
DNDI1417219

$$$$

  SciTegic04051205032D

 22 24  0  0  0  0            999 V2000
    9.2228   -7.2148    0.0000 C   0  0
    7.7649   -6.3847    0.0000 C   0  0
    7.7649   -7.2148    0.0000 C   0  0
    8.4995   -7.6470    0.0000 C   0  0
    8.4995   -5.9525    0.0000 O   0  0
    9.2228   -6.3847    0.0000 C   0  0
    9.9483   -7.6356    0.0000 O   0  0
    7.0280   -5.9525    0.0000 C   0  0
    7.0280   -7.6470    0.0000 C   0  0
   10.6761   -7.2148    0.0000 C   0  0
    6.2888   -6.3847    0.0000 C   0  0
    8.4927   -8.3748    0.0000 O   0  0
    6.2888   -7.2148    0.0000 C   0  0
   11.4062   -7.6311    0.0000 C   0  0
    7.0416   -5.2475    0.0000 O   0  0
   11.4085   -8.2838    0.0000 F   0  0
    9.9483   -5.9753    0.0000 C   0  0
    5.4950   -5.9753    0.0000 O   0  0
   10.6761   -6.4029    0.0000 C   0  0
   12.1318   -7.2103    0.0000 C   0  0
   11.4062   -5.9639    0.0000 C   0  0
   12.1318   -6.3847    0.0000 C   0  0
  2  5  1  0
  3  4  1  0
  4  1  1  0
  5  6  1  0
  6  1  2  0
  7  1  1  0
  8  2  1  0
  9  3  1  0
 10  7  1  0
 11  8  2  0
 12  4  2  0
 13  9  2  0
 14 10  2  0
 15  8  1  0
 16 14  1  0
 17  6  1  0
 18 11  1  0
 19 10  1  0
 20 14  1  0
 21 19  2  0
 22 21  1  0
  2  3  2  0
 11 13  1  0
 22 20  2  0
M  END
> <COMPOUND_ID>
DNDI1417220

$$$$

  SciTegic04051205032D

 19 20  0  0  0  0            999 V2000
    6.8025   -7.0933    0.0000 N   0  0
    7.6276   -7.0933    0.0000 C   0  0
    7.8818   -6.3058    0.0000 C   0  0
    6.5525   -6.3058    0.0000 C   0  0
    7.2151   -5.8225    0.0000 S   0  0
    6.3192   -7.7558    0.0000 C   0  0
    8.6693   -6.0475    0.0000 C   0  0
    6.6525   -8.5059    0.0000 C   0  0
    5.7692   -6.0475    0.0000 S   0  0
    5.4942   -7.6683    0.0000 C   0  0
    8.1151   -7.7600    0.0000 N   0  0
    8.8443   -5.2475    0.0000 O   0  0
    5.0067   -8.3309    0.0000 C   0  0
    6.1692   -9.1726    0.0000 C   0  0
    9.2818   -6.6058    0.0000 O   0  0
    5.1650   -6.9100    0.0000 F   0  0
    5.3442   -9.0851    0.0000 C   0  0
    6.5067   -9.9226    0.0000 F   0  0
   10.0693   -6.3475    0.0000 C   0  0
  2  1  1  0
  3  2  2  0
  4  1  1  0
  5  4  1  0
  6  1  1  0
  7  3  1  0
  8  6  1  0
  9  4  2  0
 10  6  2  0
 11  2  1  0
 12  7  2  0
 13 10  1  0
 14  8  2  0
 15  7  1  0
 16 10  1  0
 17 13  2  0
 18 14  1  0
 19 15  1  0
  5  3  1  0
 17 14  1  0
M  END
> <COMPOUND_ID>
DNDI1417221

$$$$

  SciTegic04051205032D

 22 23  0  0  0  0            999 V2000
    8.0240   -6.9038    0.0000 C   0  0
    7.3082   -6.4876    0.0000 C   0  0
    8.7356   -6.4876    0.0000 C   0  0
    8.0240   -7.7278    0.0000 C   0  0
    7.3082   -5.6678    0.0000 C   0  0
    6.5883   -6.9038    0.0000 C   0  0
    9.4472   -6.9038    0.0000 C   0  0
    8.7356   -5.6678    0.0000 C   0  0
    5.8766   -5.6678    0.0000 C   0  0
   10.1589   -5.6678    0.0000 C   0  0
   10.1589   -6.4876    0.0000 C   0  0
    9.4348   -5.2516    0.0000 C   0  0
    6.5883   -5.2516    0.0000 C   0  0
    5.8766   -6.4876    0.0000 C   0  0
    8.0073   -9.3757    0.0000 N   0  0
    5.1650   -5.2516    0.0000 F   0  0
   10.8705   -5.2475    0.0000 F   0  0
    8.7231  -11.4357    0.0000 N   0  0
    8.7356   -8.1397    0.0000 C   0  0
    8.7356   -8.9637    0.0000 C   0  0
    8.0073  -10.1997    0.0000 C   0  0
    8.7231  -10.6075    0.0000 C   0  0
  2  1  1  0
  3  1  1  0
  4  1  2  0
  5  2  1  0
  6  2  2  0
  7  3  2  0
  8  3  1  0
  9 14  2  0
 10 12  1  0
 11  7  1  0
 12  8  2  0
 13  5  2  0
 14  6  1  0
 15 20  1  0
 16  9  1  0
 17 10  1  0
 18 22  1  0
 19  4  1  0
 20 19  1  0
 21 15  1  0
 22 21  1  0
 10 11  2  0
  9 13  1  0
M  END
> <COMPOUND_ID>
DNDI1417222

$$$$

  SciTegic04051205032D

 23 25  0  0  0  0            999 V2000
    7.5377   -7.0290    0.0000 C   0  0
    8.3506   -7.0879    0.0000 C   0  0
    6.9793   -7.6370    0.0000 C   0  0
    8.8160   -7.7828    0.0000 C   0  0
    6.2068   -7.4074    0.0000 C   0  0
    9.6257   -7.6866    0.0000 C   0  0
    8.7384   -6.3836    0.0000 O   0  0
    7.2585   -6.2658    0.0000 O   0  0
    6.0145   -6.5946    0.0000 C   0  0
   10.1251   -8.3506    0.0000 C   0  0
    7.0941   -8.4498    0.0000 C   0  0
    8.5615   -8.5646    0.0000 C   0  0
    7.8108   -8.8562    0.0000 C   0  0
    5.2234   -6.3929    0.0000 C   0  0
    6.5946   -6.0145    0.0000 C   0  0
    9.8180   -9.1354    0.0000 C   0  0
   10.9380   -8.2265    0.0000 C   0  0
    5.0000   -5.5987    0.0000 C   0  0
    6.3712   -5.1923    0.0000 C   0  0
   10.3485   -9.7932    0.0000 C   0  0
   11.4685   -8.8562    0.0000 C   0  0
    5.5987   -5.0000    0.0000 C   0  0
   11.1614   -9.6566    0.0000 C   0  0
  2  1  1  0
  3  1  1  0
  4  2  1  0
  5  3  2  0
  6  4  2  0
  7  2  2  0
  8  1  2  0
  9  5  1  0
 10  6  1  0
 11  3  1  0
 12  4  1  0
 13 11  1  0
 14  9  1  0
 15  9  2  0
 16 10  2  0
 17 10  1  0
 18 14  2  0
 19 15  1  0
 20 16  1  0
 21 17  2  0
 22 18  1  0
 23 21  1  0
 12 13  1  0
 22 19  2  0
 23 20  2  0
M  END
> <COMPOUND_ID>
DNDI1417223

$$$$

  SciTegic04051205032D

 19 20  0  0  0  0            999 V2000
    8.0197   -6.4882    0.0000 N   0  0
    7.3101   -6.8990    0.0000 C   0  0
    8.7376   -6.8990    0.0000 C   0  0
    9.4471   -6.4882    0.0000 C   0  0
    8.0156   -5.6666    0.0000 N   0  0
    7.3143   -7.7205    0.0000 N   0  0
    6.5923   -6.4882    0.0000 N   0  0
    9.4512   -5.6666    0.0000 C   0  0
    8.7334   -5.2475    0.0000 C   0  0
    6.6006   -8.1396    0.0000 C   0  0
    5.8786   -6.9031    0.0000 C   0  0
    5.8828   -7.7288    0.0000 C   0  0
    8.7376   -7.7246    0.0000 O   0  0
   10.1649   -6.8990    0.0000 Cl  0  0
   10.1649   -5.2475    0.0000 Cl  0  0
    6.6090   -8.9653    0.0000 O   0  0
    5.1650   -6.4923    0.0000 O   0  0
    5.8994   -9.3802    0.0000 C   0  0
    5.1650   -5.6707    0.0000 C   0  0
  2  1  1  0
  3  1  1  0
  4  3  1  0
  5  1  1  0
  6  2  1  0
  7  2  2  0
  8  9  1  0
  9  5  2  0
 10  6  2  0
 11  7  1  0
 12 10  1  0
 13  3  2  0
 14  4  1  0
 15  8  1  0
 16 10  1  0
 17 11  1  0
 18 16  1  0
 19 17  1  0
  8  4  2  0
 12 11  2  0
M  END
> <COMPOUND_ID>
DNDI1417224

$$$$

  SciTegic04051205032D

 22 23  0  0  0  0            999 V2000
    7.6265   -7.6778    0.0000 C   0  0
    6.8014   -7.6778    0.0000 C   0  0
    6.5474   -8.4629    0.0000 C   0  0
    7.8806   -8.4629    0.0000 C   0  0
    7.2097   -8.9454    0.0000 N   0  0
    8.0947   -7.0098    0.0000 C   0  0
    6.3161   -7.0098    0.0000 C   0  0
    8.9226   -7.0869    0.0000 C   0  0
    9.4165   -6.4132    0.0000 C   0  0
    8.6600   -8.7142    0.0000 O   0  0
    6.6444   -6.2475    0.0000 O   0  0
   10.2444   -6.5102    0.0000 C   0  0
    5.4882   -7.0869    0.0000 O   0  0
    5.7623   -8.7142    0.0000 C   0  0
    9.0882   -5.6708    0.0000 O   0  0
   10.7326   -5.8479    0.0000 O   0  0
    9.2681   -7.8434    0.0000 C   0  0
   10.0846   -7.9291    0.0000 C   0  0
   10.5784   -7.2724    0.0000 C   0  0
    5.0000   -6.4245    0.0000 C   0  0
    9.5735   -5.0000    0.0000 C   0  0
   10.4015   -5.1028    0.0000 C   0  0
  2  1  1  0
  3  2  2  0
  4  1  1  0
  5  4  1  0
  6  1  2  0
  7  2  1  0
  8  6  1  0
  9  8  1  0
 10  4  2  0
 11  7  2  0
 12  9  2  0
 13  7  1  0
 14  3  1  0
 15  9  1  0
 16 12  1  0
 17  8  2  0
 18 17  1  0
 19 18  2  0
 20 13  1  0
 21 15  1  0
 22 16  1  0
  5  3  1  0
 19 12  1  0
M  END
> <COMPOUND_ID>
DNDI1417225

$$$$

  SciTegic04051205032D

 23 26  0  0  0  0            999 V2000
    7.7042   -6.7594    0.0000 C   0  0
    7.2197   -6.0894    0.0000 C   0  0
    7.2094   -7.4227    0.0000 N   0  0
    8.5256   -6.6736    0.0000 N   0  0
    6.4294   -6.3437    0.0000 C   0  0
    7.5496   -5.3335    0.0000 N   0  0
    6.4294   -7.1718    0.0000 C   0  0
    8.8657   -5.9108    0.0000 C   0  0
    8.3709   -5.2475    0.0000 N   0  0
   10.1577   -6.4949    0.0000 N   0  0
    9.6801   -5.8351    0.0000 N   0  0
   10.9824   -6.4159    0.0000 C   0  0
   11.1267   -7.8315    0.0000 N   0  0
   11.4635   -7.0756    0.0000 C   0  0
    7.4568   -8.2096    0.0000 C   0  0
    5.7147   -5.9244    0.0000 C   0  0
    5.7147   -7.5841    0.0000 C   0  0
   11.6078   -8.5016    0.0000 C   0  0
   12.2813   -7.0035    0.0000 C   0  0
    5.0000   -6.3437    0.0000 C   0  0
    5.0000   -7.1718    0.0000 C   0  0
   12.4325   -8.4158    0.0000 C   0  0
   12.7624   -7.6598    0.0000 C   0  0
  2  1  2  0
  3  1  1  0
  4  1  1  0
  5  2  1  0
  6  2  1  0
  7  3  1  0
  8  4  2  0
  9  8  1  0
 10 11  1  0
 11  8  1  0
 12 10  2  0
 13 14  1  0
 14 12  1  0
 15  3  1  0
 16  5  1  0
 17  7  1  0
 18 13  2  0
 19 14  2  0
 20 16  2  0
 21 17  2  0
 22 23  2  0
 23 19  1  0
  7  5  2  0
  9  6  2  0
 20 21  1  0
 18 22  1  0
M  END
> <COMPOUND_ID>
DNDI1417226

$$$$

  SciTegic04051205032D

 23 26  0  0  0  0            999 V2000
    8.5071   -7.2011    0.0000 N   0  3
    7.4327   -6.4170    0.0000 C   0  0
    7.1826   -7.1764    0.0000 C   0  0
    8.2570   -6.4170    0.0000 C   0  0
    7.8341   -7.6766    0.0000 N   0  0
    6.3676   -7.3493    0.0000 N   0  0
    6.8863   -5.7933    0.0000 C   0  0
    5.8150   -6.7288    0.0000 C   0  0
    6.0744   -5.9508    0.0000 C   0  0
    8.8127   -5.8026    0.0000 N   0  0
    9.3159   -7.3709    0.0000 C   0  0
    9.8624   -6.7658    0.0000 C   0  0
    9.6185   -5.9724    0.0000 C   0  0
    6.1114   -8.1365    0.0000 C   0  0
    7.1456   -5.0000    0.0000 C   0  0
    5.0000   -6.8986    0.0000 C   0  0
    9.5814   -8.1643    0.0000 C   0  0
   10.1587   -5.3488    0.0000 C   0  0
    5.3056   -8.3064    0.0000 C   0  0
    6.6640   -8.7417    0.0000 C   0  0
    5.0463   -9.0843    0.0000 C   0  0
    6.4078   -9.5289    0.0000 C   0  0
    5.6020   -9.6925    0.0000 C   0  0
  2  4  1  0
  3  5  2  0
  4  1  2  0
  5  1  1  0
  6  3  1  0
  7  2  2  0
  8  6  1  0
  9  7  1  0
 10  4  1  0
 11  1  1  0
 12 11  2  0
 13 12  1  0
 14  6  1  0
 15  7  1  0
 16  8  1  0
 17 11  1  0
 18 13  1  0
 19 14  2  0
 20 14  1  0
 21 19  1  0
 22 20  2  0
 23 22  1  0
  2  3  1  0
 13 10  2  0
  8  9  2  0
 21 23  2  0
M  CHG  1   1   1
M  END
> <COMPOUND_ID>
DNDI1417227

$$$$

  SciTegic04051205032D

 23 25  0  0  0  0            999 V2000
    7.1414   -6.6516    0.0000 C   0  0
    9.2869   -8.7141    0.0000 O   0  0
    6.4235   -6.2366    0.0000 C   0  0
    7.1414   -7.4775    0.0000 C   0  0
    7.8552   -6.2366    0.0000 C   0  0
    9.9966   -9.1250    0.0000 C   0  0
    9.9924   -9.9591    0.0000 C   0  0
    9.2869   -7.8883    0.0000 C   0  0
    8.5731   -7.4775    0.0000 C   0  0
    7.8552   -7.8883    0.0000 C   0  0
    8.5649   -6.6516    0.0000 C   0  0
   11.4283   -9.1250    0.0000 N   0  0
   10.7145   -8.7141    0.0000 C   0  0
    6.4235   -5.4149    0.0000 C   0  0
    5.7138   -6.6516    0.0000 C   0  0
   10.7062  -10.3659    0.0000 C   0  0
    9.2745  -10.3659    0.0000 C   0  0
    5.7138   -5.0000    0.0000 C   0  0
    5.0000   -6.2366    0.0000 C   0  0
    9.2745  -11.1958    0.0000 C   0  0
   10.7145  -11.1792    0.0000 C   0  0
    5.0000   -5.4149    0.0000 C   0  0
    9.9924  -11.6025    0.0000 C   0  0
  2  8  1  0
  3  1  1  0
  4  1  2  0
  5  1  1  0
  6  2  1  0
  7  6  1  0
  8  9  1  0
  9 10  2  0
 10  4  1  0
 11  5  2  0
 12 13  1  0
 13  6  1  0
 14  3  1  0
 15  3  2  0
 16  7  1  0
 17  7  2  0
 18 14  2  0
 19 15  1  0
 20 17  1  0
 21 16  2  0
 22 18  1  0
 23 21  1  0
  9 11  1  0
 22 19  2  0
 23 20  2  0
M  END
> <COMPOUND_ID>
DNDI1417228

$$$$

  SciTegic04051205032D

 23 26  0  0  0  0            999 V2000
    7.8523   -7.4833    0.0000 C   0  0
    7.1386   -7.8960    0.0000 N   0  0
    7.8523   -6.6604    0.0000 C   0  0
    6.4274   -7.4833    0.0000 C   0  0
    8.5635   -7.8960    0.0000 N   0  0
    7.1386   -6.2477    0.0000 C   0  0
    6.4274   -6.6604    0.0000 C   0  0
    8.5635   -6.2477    0.0000 C   0  0
   10.0006   -8.7359    0.0000 N   0  0
    5.7112   -7.8960    0.0000 C   0  0
    8.5635   -8.7262    0.0000 C   0  0
    9.2796   -7.4930    0.0000 C   0  0
    5.7112   -6.2477    0.0000 C   0  0
    5.0000   -6.6604    0.0000 C   0  0
    9.2796   -9.1437    0.0000 C   0  0
   10.0006   -7.8960    0.0000 C   0  0
    5.0000   -7.4833    0.0000 C   0  0
    5.7112   -8.7189    0.0000 C   0  0
    9.2966   -6.6434    0.0000 C   0  0
    8.5635   -5.4248    0.0000 C   0  0
    9.9908   -6.2356    0.0000 C   0  0
    9.2699   -5.0000    0.0000 C   0  0
    9.9908   -5.3956    0.0000 C   0  0
  2  1  2  0
  3  1  1  0
  4  2  1  0
  5  1  1  0
  6  3  2  0
  7  4  2  0
  8  3  1  0
  9 16  1  0
 10  4  1  0
 11  5  1  0
 12  5  1  0
 13  7  1  0
 14 13  2  0
 15 11  1  0
 16 12  1  0
 17 10  2  0
 18 10  1  0
 19  8  2  0
 20  8  1  0
 21 19  1  0
 22 20  2  0
 23 21  2  0
  7  6  1  0
  9 15  1  0
 14 17  1  0
 23 22  1  0
M  END
> <COMPOUND_ID>
DNDI1417229

$$$$

  SciTegic04051205032D

 22 23  0  0  0  0            999 V2000
    7.8074   -8.8109    0.0000 C   0  0
    7.1064   -8.4019    0.0000 C   0  0
    6.4123   -8.8143    0.0000 C   0  0
    7.1133  -10.0410    0.0000 N   0  0
    6.4123   -9.6322    0.0000 C   0  0
    8.5084   -8.4019    0.0000 C   0  0
    7.8074   -9.6322    0.0000 C   0  0
    5.7010  -10.0514    0.0000 C   0  0
    8.5084   -7.5875    0.0000 O   0  0
    7.0927   -7.5636    0.0000 N   0  0
    9.2232   -8.7971    0.0000 O   0  0
    5.7010   -8.4019    0.0000 C   0  0
    5.7147  -10.8898    0.0000 O   0  0
    6.3641   -6.2646    0.0000 C   0  0
    5.6460   -5.0000    0.0000 O   0  0
    5.0000   -8.8143    0.0000 C   0  0
    6.3641   -7.1443    0.0000 C   0  0
    5.0000   -9.6322    0.0000 C   0  0
    5.6460   -5.8523    0.0000 C   0  0
    9.2232   -9.6287    0.0000 C   0  0
    6.4295  -11.3125    0.0000 C   0  0
    9.9379  -10.0342    0.0000 C   0  0
  2  1  2  0
  3  2  1  0
  4  7  2  0
  5  4  1  0
  6  1  1  0
  7  1  1  0
  8  5  2  0
  9  6  2  0
 10  2  1  0
 11  6  1  0
 12  3  2  0
 13  8  1  0
 14 17  1  0
 15 19  1  0
 16 12  1  0
 17 10  1  0
 18  8  1  0
 19 14  1  0
 20 11  1  0
 21 13  1  0
 22 20  1  0
  5  3  1  0
 18 16  2  0
M  END
> <COMPOUND_ID>
DNDI1417230

$$$$

  SciTegic04051205032D

 23 25  0  0  0  0            999 V2000
    7.1530   -9.5460    0.0000 C   0  0
    7.1654  -10.3906    0.0000 C   0  0
    7.8485   -9.1319    0.0000 C   0  0
    7.8609  -10.8005    0.0000 N   0  0
    6.4532  -10.8005    0.0000 C   0  0
    7.8485   -8.2998    0.0000 N   0  0
    8.5565   -9.5418    0.0000 C   0  0
    6.4326   -9.1319    0.0000 C   0  0
    8.5565  -10.3864    0.0000 C   0  0
    7.1488   -6.2421    0.0000 C   0  0
    6.4201   -5.8446    0.0000 C   0  0
    5.7618  -10.3906    0.0000 C   0  0
    7.8485   -7.4717    0.0000 C   0  0
    7.1488   -7.0619    0.0000 C   0  0
    5.7246   -9.5460    0.0000 C   0  0
    6.4201   -5.0000    0.0000 O   0  0
    6.4408  -11.6451    0.0000 C   0  0
    7.8485   -5.8322    0.0000 C   0  0
    8.5772   -6.2421    0.0000 C   0  0
    8.5772   -7.0619    0.0000 C   0  0
    5.7122   -6.2503    0.0000 C   0  0
    9.2645  -10.7881    0.0000 C   0  0
    5.0000   -9.1485    0.0000 C   0  0
  2  1  1  0
  3  1  1  0
  4  2  1  0
  5  2  2  0
  6  3  1  0
  7  3  2  0
  8  1  2  0
  9  7  1  0
 10 14  1  0
 11 10  1  0
 12 15  2  0
 13  6  1  0
 14 13  2  0
 15  8  1  0
 16 11  2  0
 17  5  1  0
 18 19  1  0
 19 20  2  0
 20 13  1  0
 21 11  1  0
 22  9  1  0
 23 15  1  0
  5 12  1  0
  9  4  2  0
 18 10  2  0
M  END
> <COMPOUND_ID>
DNDI1417231

$$$$

  SciTegic04051205032D

 23 26  0  0  0  0            999 V2000
    6.9147   -7.4305    0.0000 C   0  0
    8.1566   -8.1342    0.0000 C   0  0
    7.1642   -6.6484    0.0000 N   0  0
    8.6220   -8.7958    0.0000 N   0  0
    8.6220   -7.4698    0.0000 N   0  0
    6.0877   -7.4305    0.0000 N   0  0
    7.3268   -8.1482    0.0000 C   0  0
    5.8382   -6.6484    0.0000 C   0  0
    9.4041   -7.7193    0.0000 C   0  0
    6.4970   -6.1830    0.0000 C   0  0
    9.4041   -8.5463    0.0000 C   0  0
    8.3473   -6.6792    0.0000 C   0  0
    5.5915   -8.0893    0.0000 C   0  0
    5.0757   -6.2951    0.0000 C   0  0
   10.1218   -7.3072    0.0000 C   0  0
    6.4213   -5.3504    0.0000 C   0  0
   10.1218   -8.9556    0.0000 C   0  0
    7.5371   -6.5250    0.0000 C   0  0
    5.9167   -8.8519    0.0000 C   0  0
    5.0000   -5.4653    0.0000 C   0  0
   10.8451   -7.7193    0.0000 C   0  0
    5.6672   -5.0000    0.0000 C   0  0
   10.8451   -8.5463    0.0000 C   0  0
  2  7  1  0
  3  1  2  0
  4  2  2  0
  5  2  1  0
  6  1  1  0
  7  1  1  0
  8  6  1  0
  9  5  1  0
 10  3  1  0
 11  4  1  0
 12  5  1  0
 13  6  1  0
 14  8  2  0
 15  9  2  0
 16 10  2  0
 17 11  2  0
 18 12  1  0
 19 13  1  0
 20 14  1  0
 21 15  1  0
 22 16  1  0
 23 17  1  0
 10  8  1  0
 22 20  2  0
 11  9  1  0
 23 21  2  0
M  END
> <COMPOUND_ID>
DNDI1417232

$$$$

  SciTegic04051205032D

 21 22  0  0  0  0            999 V2000
    6.4160   -6.2167    0.0000 C   0  0
    7.1241   -6.6359    0.0000 C   0  0
    8.6191   -6.5844    0.0000 N   0  0
    9.3271   -6.1857    0.0000 C   0  0
    7.9111   -6.1857    0.0000 O   0  0
   10.0351   -6.5844    0.0000 C   0  0
    5.7080   -6.6359    0.0000 C   0  0
    7.1103   -7.5261    0.0000 O   0  0
   10.7432   -6.1857    0.0000 C   0  0
   10.0351   -7.4024    0.0000 C   0  0
    9.3271   -5.3677    0.0000 N   0  0
    5.7080   -7.4540    0.0000 Cl  0  0
   11.4512   -7.4024    0.0000 C   0  0
   11.4512   -6.5844    0.0000 C   0  0
   10.7432   -7.8217    0.0000 C   0  0
    6.4160   -5.4021    0.0000 C   0  0
   12.1592   -7.8217    0.0000 O   0  0
    5.0000   -6.2029    0.0000 C   0  0
   12.8673   -7.4024    0.0000 C   0  0
    5.7218   -5.0000    0.0000 C   0  0
    5.0000   -5.3883    0.0000 C   0  0
  2  1  1  0
  3  5  1  0
  4  3  2  0
  5  2  1  0
  6  4  1  0
  7  1  1  0
  8  2  2  0
  9  6  2  0
 10  6  1  0
 11  4  1  0
 12  7  1  0
 13 15  1  0
 14  9  1  0
 15 10  2  0
 16  1  2  0
 17 13  1  0
 18  7  2  0
 19 17  1  0
 20 16  1  0
 21 20  2  0
 21 18  1  0
 13 14  2  0
M  END
> <COMPOUND_ID>
DNDI1417233

$$$$

  SciTegic04051205032D

 20 22  0  0  0  0            999 V2000
    6.4327   -5.6746    0.0000 N   0  0
    9.7636   -5.9782    0.0000 C   0  0
    5.1650   -5.2530    0.0000 N   0  0
    5.1650   -6.0794    0.0000 N   0  0
    5.9521   -5.0000    0.0000 C   0  0
    5.9436   -6.3324    0.0000 C   0  0
    8.9793   -5.7252    0.0000 O   0  0
    7.2591   -5.6746    0.0000 N   0  0
    8.4959   -6.3914    0.0000 C   0  0
    7.6723   -6.3886    0.0000 C   0  0
    9.7607   -6.8046    0.0000 C   0  0
    8.9709   -7.0660    0.0000 C   0  0
   10.4382   -5.5060    0.0000 S   0  0
   11.1858   -5.8433    0.0000 C   0  0
   12.6868   -6.5179    0.0000 C   0  0
   13.4402   -6.8608    0.0000 Cl  0  0
   11.8604   -5.3598    0.0000 C   0  0
   11.2646   -6.6668    0.0000 C   0  0
   12.0207   -7.0070    0.0000 C   0  0
   12.5969   -5.6887    0.0000 C   0  0
  2  7  1  0
  3  5  2  0
  4  6  2  0
  5  1  1  0
  6  1  1  0
  7  9  1  0
  8  1  1  0
  9 10  1  0
 10  8  2  0
 11 12  1  0
 12  9  2  0
 13  2  1  0
 14 13  1  0
 15 19  2  0
 16 15  1  0
 17 14  1  0
 18 14  2  0
 19 18  1  0
 20 17  2  0
  3  4  1  0
  2 11  2  0
 20 15  1  0
M  END
> <COMPOUND_ID>
DNDI1417234

$$$$

  SciTegic04051205032D

 21 24  0  0  0  0            999 V2000
    7.8467   -7.0612    0.0000 C   0  0
    7.1443   -7.4851    0.0000 C   0  0
    6.4254   -7.0737    0.0000 C   0  0
    7.1485   -8.3079    0.0000 O   0  0
    6.4254   -6.2467    0.0000 C   0  0
    8.5697   -8.3037    0.0000 N   0  0
    7.1443   -5.8270    0.0000 C   0  0
    7.8467   -6.2467    0.0000 C   0  0
    8.5573   -7.4726    0.0000 C   0  0
    7.8591   -8.7069    0.0000 C   0  0
    5.7148   -7.4851    0.0000 N   0  0
    8.6196  -10.0283    0.0000 O   0  0
    9.2886   -8.7027    0.0000 C   0  0
    7.1319   -5.0000    0.0000 Cl  0  0
    9.2928   -9.5297    0.0000 C   0  0
    5.7148   -5.8270    0.0000 C   0  0
    5.0000   -7.0737    0.0000 C   0  0
    8.8897  -10.8013    0.0000 C   0  0
    9.9660  -10.0159    0.0000 C   0  0
    5.0000   -6.2467    0.0000 C   0  0
    9.7374  -10.7971    0.0000 C   0  0
  2  1  1  0
  3  2  2  0
  4  2  1  0
  5  7  2  0
  6  9  1  0
  7  8  1  0
  8  1  2  0
  9  1  1  0
 10  6  1  0
 11  3  1  0
 12 15  1  0
 13  6  1  0
 14  7  1  0
 15 13  1  0
 16  5  1  0
 17 11  2  0
 18 12  1  0
 19 15  1  0
 20 16  2  0
 21 19  1  0
 10  4  1  0
  3  5  1  0
 20 17  1  0
 21 18  1  0
M  END
> <COMPOUND_ID>
DNDI1417235

$$$$

  SciTegic04051205032D

 23 26  0  0  0  0            999 V2000
    7.8528   -6.5530    0.0000 C   0  0
    7.1438   -6.1401    0.0000 N   0  0
    7.8653   -7.3788    0.0000 C   0  0
    7.1438   -7.7959    0.0000 N   0  0
    7.3105   -5.3393    0.0000 N   0  0
    8.1280   -5.2475    0.0000 N   0  0
    8.4659   -5.9983    0.0000 N   0  0
    6.4306   -6.5572    0.0000 C   0  0
    6.4306   -7.3830    0.0000 C   0  0
    8.5785   -7.7917    0.0000 N   0  0
    9.2917   -7.3746    0.0000 N   0  0
   10.7264   -7.3705    0.0000 C   0  0
   11.4354   -7.7792    0.0000 C   0  0
   10.0091   -7.7834    0.0000 C   0  0
    5.7132   -6.1484    0.0000 C   0  0
   11.4354   -8.6092    0.0000 O   0  0
    5.7174   -7.8000    0.0000 C   0  0
   10.7138   -6.5488    0.0000 C   0  0
   12.1486   -7.3663    0.0000 C   0  0
    5.0042   -6.5572    0.0000 C   0  0
    5.0000   -7.3871    0.0000 C   0  0
   11.4229   -6.1318    0.0000 C   0  0
   12.1444   -6.5405    0.0000 C   0  0
  2  1  1  0
  3  1  1  0
  4  3  2  0
  5  2  1  0
  6  7  1  0
  7  1  2  0
  8  2  1  0
  9  4  1  0
 10  3  1  0
 11 10  1  0
 12 14  1  0
 13 12  2  0
 14 11  2  0
 15  8  2  0
 16 13  1  0
 17  9  2  0
 18 12  1  0
 19 13  1  0
 20 15  1  0
 21 17  1  0
 22 18  2  0
 23 22  1  0
  6  5  2  0
  9  8  1  0
 21 20  2  0
 23 19  2  0
M  END
> <COMPOUND_ID>
DNDI1417236

$$$$

  SciTegic04051205032D

 23 26  0  0  0  0            999 V2000
    6.6492   -7.1989    0.0000 N   0  3
   10.3199   -6.9861    0.0000 C   0  0
    7.4472   -6.9447    0.0000 C   0  0
   11.0470   -7.3231    0.0000 N   0  0
   10.3849   -6.1822    0.0000 O   0  0
    7.4472   -6.1172    0.0000 O   0  0
    6.1822   -6.5191    0.0000 C   0  0
   11.5967   -6.7319    0.0000 C   0  0
    6.6669   -5.8512    0.0000 C   0  0
   11.1889   -5.9931    0.0000 C   0  0
    9.6047   -7.3881    0.0000 C   0  0
    8.1565   -7.3585    0.0000 C   0  0
    8.8776   -6.9684    0.0000 C   0  0
    6.3832   -7.9615    0.0000 C   0  0
   11.2066   -8.1388    0.0000 C   0  0
    5.3487   -6.4187    0.0000 C   0  0
   12.4420   -6.7319    0.0000 C   0  0
   11.5967   -5.2838    0.0000 C   0  0
    6.3240   -5.1005    0.0000 C   0  0
   12.8380   -5.9931    0.0000 C   0  0
    5.0000   -5.6679    0.0000 C   0  0
    5.5143   -5.0000    0.0000 C   0  0
   12.4420   -5.3133    0.0000 C   0  0
  2 11  2  0
  3  1  2  0
  4  2  1  0
  5  2  1  0
  6  3  1  0
  7  1  1  0
  8  4  1  0
  9  7  2  0
 10  5  1  0
 11 13  1  0
 12  3  1  0
 13 12  2  0
 14  1  1  0
 15  4  1  0
 16  7  1  0
 17  8  1  0
 18 10  1  0
 19  9  1  0
 20 17  2  0
 21 16  2  0
 22 21  1  0
 23 18  2  0
  9  6  1  0
 22 19  2  0
  8 10  2  0
 20 23  1  0
M  CHG  1   1   1
M  END
> <COMPOUND_ID>
DNDI1417237

$$$$

  SciTegic04051205032D

 22 23  0  0  0  0            999 V2000
    7.8665   -6.6594    0.0000 C   0  0
    7.1447   -6.2445    0.0000 C   0  0
    8.5716   -6.2445    0.0000 C   0  0
    6.4187   -6.6594    0.0000 C   0  0
    7.1447   -5.4149    0.0000 C   0  0
    9.2892   -6.6594    0.0000 C   0  0
    8.5716   -5.4149    0.0000 C   0  0
    5.7135   -5.4149    0.0000 C   0  0
   10.0027   -5.4149    0.0000 C   0  0
   10.0027   -6.2445    0.0000 C   0  0
    9.2810   -5.0084    0.0000 C   0  0
    5.7135   -6.2445    0.0000 C   0  0
    6.4187   -5.0084    0.0000 C   0  0
    5.0000   -5.0084    0.0000 F   0  0
   10.7163   -5.0000    0.0000 F   0  0
    7.8665   -7.4807    0.0000 O   0  0
    9.9945  -11.1934    0.0000 N   0  0
    9.9945  -10.3679    0.0000 C   0  0
    8.5716   -7.8956    0.0000 C   0  0
    9.2810   -9.9572    0.0000 C   0  0
    8.5716   -8.7210    0.0000 C   0  0
    9.2810   -9.1317    0.0000 C   0  0
  2  1  1  0
  3  1  1  0
  4  2  2  0
  5  2  1  0
  6  3  2  0
  7  3  1  0
  8 13  1  0
  9 11  1  0
 10  6  1  0
 11  7  2  0
 12  4  1  0
 13  5  2  0
 14  8  1  0
 15  9  1  0
 16  1  1  0
 17 18  1  0
 18 20  1  0
 19 16  1  0
 20 22  1  0
 21 19  1  0
 22 21  1  0
  9 10  2  0
  8 12  2  0
M  END
> <COMPOUND_ID>
DNDI1417238

$$$$

  SciTegic04051205032D

 23 25  0  0  0  0            999 V2000
    8.7318  -10.5119    0.0000 N   0  3
    8.0413  -10.9909    0.0000 O   0  0
    7.3787  -10.4999    0.0000 C   0  0
    8.4683   -9.7057    0.0000 C   0  0
    7.6462   -9.7057    0.0000 C   0  0
    8.9872   -9.0631    0.0000 C   0  0
    8.6999   -8.3088    0.0000 C   0  0
   10.2644   -6.3731    0.0000 C   0  0
    6.5885  -10.7315    0.0000 C   0  0
   10.7833   -5.7504    0.0000 N   0  0
    9.4143   -6.2572    0.0000 C   0  0
   10.5398   -7.1633    0.0000 C   0  0
    9.5061  -10.7794    0.0000 C   0  0
    9.2107   -7.6742    0.0000 C   0  0
    8.9233   -6.8719    0.0000 C   0  0
   10.0409   -7.7819    0.0000 C   0  0
   11.5855   -5.8821    0.0000 C   0  0
   10.4799   -5.0000    0.0000 C   0  0
    6.4129  -11.5337    0.0000 C   0  0
    5.9619  -10.1846    0.0000 C   0  0
    5.6147  -11.7931    0.0000 C   0  0
    5.1756  -10.4520    0.0000 C   0  0
    5.0000  -11.2583    0.0000 C   0  0
  2  1  1  0
  3  2  1  0
  4  1  2  0
  5  4  1  0
  6  4  1  0
  7  6  2  0
  8 12  2  0
  9  3  1  0
 10  8  1  0
 11 15  2  0
 12 16  1  0
 13  1  1  0
 14  7  1  0
 15 14  1  0
 16 14  2  0
 17 10  1  0
 18 10  1  0
 19  9  1  0
 20  9  2  0
 21 19  2  0
 22 20  1  0
 23 22  2  0
  5  3  2  0
  8 11  1  0
 23 21  1  0
M  CHG  1   1   1
M  END
> <COMPOUND_ID>
DNDI1417239

$$$$

  SciTegic04051205032D

 23 26  0  0  0  0            999 V2000
    5.7517   -6.1315    0.0000 N   0  0
    6.7704   -5.7699    0.0000 C   0  0
    7.4370   -5.2475    0.0000 O   0  0
    6.7704   -6.3467    0.0000 C   0  0
   10.0939   -7.2260    0.0000 C   0  0
    9.9118   -8.0415    0.0000 C   0  0
    5.7611   -5.5501    0.0000 C   0  0
    5.0237   -5.9921    0.0000 C   0  0
    5.5389   -5.0230    0.0000 C   0  0
    5.1017   -5.2475    0.0000 C   0  0
    5.0000   -6.5570    0.0000 C   0  0
    8.1131   -5.6635    0.0000 C   0  0
    9.4509   -6.6918    0.0000 C   0  0
   10.5265   -8.6159    0.0000 C   0  0
    8.8884   -5.3326    0.0000 C   0  0
    8.0091   -6.5098    0.0000 C   0  0
    9.5597   -5.8408    0.0000 C   0  0
    8.6662   -7.0156    0.0000 C   0  0
   10.3397   -9.4479    0.0000 C   0  0
   11.3420   -8.3559    0.0000 C   0  0
   10.9661  -10.0246    0.0000 C   0  0
   11.9660   -8.9303    0.0000 C   0  0
   11.7863   -9.7646    0.0000 C   0  0
  2  4  1  0
  3  2  1  0
  4  1  1  0
  5 13  1  0
  6  5  2  0
  7  8  1  0
  8 11  1  0
  9 10  1  0
 10  1  1  0
 11  1  1  0
 12  3  1  0
 13 18  1  0
 14  6  1  0
 15 12  2  0
 16 12  1  0
 17 15  1  0
 18 16  2  0
 19 14  2  0
 20 14  1  0
 21 19  1  0
 22 20  2  0
 23 22  1  0
  9  7  1  0
  7  2  1  0
 13 17  2  0
 23 21  2  0
M  END
> <COMPOUND_ID>
DNDI1417240

$$$$

  SciTegic04051205032D

 23 25  0  0  0  0            999 V2000
    7.0565   -7.1495    0.0000 C   0  0
    6.2392   -7.1495    0.0000 C   0  0
    7.4719   -7.8805    0.0000 C   0  0
    7.4719   -6.4285    0.0000 C   0  0
    5.8305   -7.8805    0.0000 N   0  0
    5.8305   -6.4285    0.0000 C   0  0
    8.2858   -7.8805    0.0000 N   0  0
    6.2392   -5.7043    0.0000 C   0  0
    8.6978   -8.5848    0.0000 C   0  0
    7.0565   -5.7043    0.0000 C   0  0
    7.0565   -8.5981    0.0000 C   0  0
    9.5417   -8.5848    0.0000 C   0  0
    6.2392   -8.5981    0.0000 C   0  0
    9.9404   -9.2859    0.0000 C   0  0
    8.2858   -9.2859    0.0000 C   0  0
    8.2858   -6.4285    0.0000 N   0  0
    9.5151  -10.0101    0.0000 C   0  0
    8.6978  -10.0101    0.0000 C   0  0
    5.0000   -6.4285    0.0000 C   0  0
    5.8305   -5.0000    0.0000 C   0  0
    9.9736   -7.8871    0.0000 C   0  0
    5.8305   -9.3190    0.0000 C   0  0
    9.9071  -10.7311    0.0000 C   0  0
  2  1  1  0
  3  1  1  0
  4  1  2  0
  5  2  1  0
  6  2  2  0
  7  3  1  0
  8 10  2  0
  9  7  1  0
 10  4  1  0
 11  3  2  0
 12  9  1  0
 13 11  1  0
 14 12  2  0
 15  9  2  0
 16  4  1  0
 17 18  2  0
 18 15  1  0
 19  6  1  0
 20  8  1  0
 21 12  1  0
 22 13  1  0
 23 17  1  0
  8  6  1  0
 13  5  2  0
 17 14  1  0
M  END
> <COMPOUND_ID>
DNDI1417241

$$$$

  SciTegic04051205032D

 23 26  0  0  0  0            999 V2000
    7.8531   -9.1201    0.0000 C   0  0
    8.5762   -8.7032    0.0000 C   0  0
    7.8531   -9.9408    0.0000 C   0  0
    7.1399   -8.7032    0.0000 C   0  0
    8.5762   -7.8824    0.0000 N   0  0
    7.1399  -10.3610    0.0000 C   0  0
   10.0092   -6.2279    0.0000 N   0  0
    8.5762  -10.3447    0.0000 N   0  0
    6.4233   -9.1201    0.0000 C   0  0
    6.4233   -9.9539    0.0000 C   0  0
    9.2992   -7.4786    0.0000 C   0  0
    9.2992   -6.6415    0.0000 C   0  0
    9.2992   -9.1331    0.0000 C   0  0
    9.2992   -9.9408    0.0000 C   0  0
   10.7225   -6.6578    0.0000 C   0  0
   10.0092   -5.4071    0.0000 C   0  0
   10.7225   -7.4623    0.0000 C   0  0
    5.7198   -8.7032    0.0000 C   0  0
    5.7198  -10.3610    0.0000 C   0  0
   10.0092   -7.8824    0.0000 C   0  0
   10.7225   -5.0000    0.0000 C   0  0
    5.0000   -9.1201    0.0000 C   0  0
    5.0000   -9.9408    0.0000 C   0  0
  2  1  1  0
  3  1  1  0
  4  1  2  0
  5  2  1  0
  6  3  2  0
  7 12  1  0
  8  3  1  0
  9  4  1  0
 10  9  2  0
 11  5  1  0
 12 11  1  0
 13  2  2  0
 14  8  2  0
 15 17  1  0
 16  7  1  0
 17 20  1  0
 18  9  1  0
 19 10  1  0
 20 11  1  0
 21 16  1  0
 22 18  2  0
 23 22  1  0
  6 10  1  0
 13 14  1  0
 23 19  2  0
  7 15  1  0
M  END
> <COMPOUND_ID>
DNDI1417242

$$$$

  SciTegic04051205032D

 23 25  0  0  0  0            999 V2000
    7.8844   -8.7325    0.0000 C   0  0
    7.8844   -9.5880    0.0000 C   0  0
    8.5826   -8.3230    0.0000 C   0  0
    8.5973   -9.9828    0.0000 N   0  0
    7.1825   -9.9828    0.0000 C   0  0
    8.5826   -7.4895    0.0000 N   0  0
    9.2992   -8.7325    0.0000 C   0  0
    7.1678   -8.3230    0.0000 C   0  0
    9.2992   -9.5623    0.0000 C   0  0
    6.4915   -9.5660    0.0000 C   0  0
    6.4367   -6.2320    0.0000 C   0  0
    5.7311   -5.8225    0.0000 N   0  0
    6.4659   -8.7325    0.0000 C   0  0
    7.8697   -7.0655    0.0000 C   0  0
    6.4367   -7.0655    0.0000 C   0  0
    7.1606   -5.8262    0.0000 C   0  0
    7.1606   -7.4822    0.0000 C   0  0
    7.8697   -6.2539    0.0000 C   0  0
    7.1788  -10.8163    0.0000 C   0  0
    5.0000   -6.2320    0.0000 C   0  0
    5.7311   -5.0000    0.0000 C   0  0
   10.0011   -9.9828    0.0000 C   0  0
    5.7311   -8.3340    0.0000 C   0  0
  2  1  1  0
  3  1  1  0
  4  2  1  0
  5  2  2  0
  6  3  1  0
  7  3  2  0
  8  1  2  0
  9  7  1  0
 10 13  2  0
 11 16  2  0
 12 11  1  0
 13  8  1  0
 14  6  1  0
 15 17  2  0
 16 18  1  0
 17 14  1  0
 18 14  2  0
 19  5  1  0
 20 12  1  0
 21 12  1  0
 22  9  1  0
 23 13  1  0
 10  5  1  0
  9  4  2  0
 11 15  1  0
M  END
> <COMPOUND_ID>
DNDI1417243

$$$$

  SciTegic04051205032D

 21 24  0  0  0  0            999 V2000
    9.1619   -7.5231    0.0000 C   0  0
    8.4918   -6.4496    0.0000 C   0  0
    9.1824   -6.8598    0.0000 N   0  0
    6.4223   -6.6274    0.0000 C   0  0
    7.8240   -6.8598    0.0000 N   0  0
    5.7772   -6.1122    0.0000 C   0  0
    8.8656   -9.1231    0.0000 C   0  0
    8.5670   -8.7949    0.0000 C   0  0
   10.1830   -8.8542    0.0000 C   0  0
    5.9094   -5.2803    0.0000 N   0  0
    7.1881   -6.3402    0.0000 C   0  0
    8.4918   -5.6154    0.0000 O   0  0
    8.5465   -7.7419    0.0000 C   0  0
   10.1534   -7.8103    0.0000 C   0  0
    8.8337   -8.0770    0.0000 C   0  0
    9.8594   -9.4012    0.0000 C   0  0
    9.5517   -9.0684    0.0000 C   0  0
    8.2502   -9.3556    0.0000 C   0  0
    5.0000   -6.3265    0.0000 Cl  0  0
    6.6866   -5.0000    0.0000 C   0  0
    7.3134   -5.5196    0.0000 C   0  0
  2  3  1  0
  3  1  1  0
  4 11  2  0
  5  2  1  0
  6  4  1  0
  7 15  1  0
  8 13  1  0
  9 14  1  0
 10 20  1  0
 11  5  1  0
 12  2  2  0
 13  1  1  0
 14  1  1  0
 15  1  1  0
 16  7  1  0
 17  8  1  0
 18  8  1  0
 19  6  1  0
 20 21  2  0
 21 11  1  0
 18  7  1  0
 17  9  1  0
 16  9  1  0
 10  6  2  0
M  END
> <COMPOUND_ID>
DNDI1417244

$$$$

  SciTegic04051205032D

 23 25  0  0  0  0            999 V2000
    7.8699   -6.2454    0.0000 C   0  0
    7.1493   -6.6620    0.0000 C   0  0
    8.5863   -6.6495    0.0000 C   0  0
    9.2986   -6.2454    0.0000 C   0  0
    6.4245   -6.2496    0.0000 C   0  0
    7.1368   -7.4950    0.0000 N   0  0
    7.8699   -5.4124    0.0000 C   0  0
    6.4245   -7.8949    0.0000 C   0  0
   10.0067   -6.6495    0.0000 N   0  0
    6.4245   -5.4332    0.0000 C   0  0
    9.2986   -5.4249    0.0000 C   0  0
    8.5863   -5.0125    0.0000 C   0  0
    5.7081   -7.4825    0.0000 O   0  0
    8.5863   -7.4825    0.0000 O   0  0
    5.7206   -6.6620    0.0000 C   0  0
   10.7231   -6.2454    0.0000 C   0  0
    6.4203   -8.7238    0.0000 C   0  0
    7.1368   -5.0125    0.0000 C   0  0
    5.7081   -5.0125    0.0000 C   0  0
   10.0067   -5.0000    0.0000 C   0  0
   10.7231   -5.4249    0.0000 C   0  0
    5.0000   -6.2496    0.0000 C   0  0
    5.0000   -5.4249    0.0000 C   0  0
  2  1  1  0
  3  1  1  0
  4  3  2  0
  5  2  1  0
  6  2  1  0
  7  1  2  0
  8  6  1  0
  9  4  1  0
 10  5  1  0
 11 12  2  0
 12  7  1  0
 13  8  2  0
 14  3  1  0
 15  5  2  0
 16  9  2  0
 17  8  1  0
 18 10  1  0
 19 10  2  0
 20 11  1  0
 21 20  2  0
 22 15  1  0
 23 22  2  0
  4 11  1  0
 16 21  1  0
 23 19  1  0
M  END
> <COMPOUND_ID>
DNDI1417245

$$$$

  SciTegic04051205032D

 21 22  0  0  0  0            999 V2000
    7.6291   -7.8319    0.0000 C   0  0
    7.8937   -8.6292    0.0000 N   0  0
    6.8077   -7.8422    0.0000 S   0  0
    7.2201   -9.1138    0.0000 C   0  0
    5.8007  -11.5814    0.0000 C   0  0
    6.5568   -8.6292    0.0000 C   0  0
    8.1171   -7.1720    0.0000 C   0  0
    5.8007  -12.3959    0.0000 C   0  0
    7.7665   -6.4160    0.0000 C   0  0
    5.0859  -11.1724    0.0000 O   0  0
    6.5121  -11.1724    0.0000 N   0  0
    7.2201   -9.9352    0.0000 C   0  0
    8.2546   -5.7527    0.0000 C   0  0
    6.5121  -10.3442    0.0000 C   0  0
    7.9178   -5.0000    0.0000 F   0  0
    8.9385   -7.2580    0.0000 C   0  0
    9.4231   -6.5878    0.0000 C   0  0
    5.0928  -12.8049    0.0000 C   0  0
    6.5121  -12.8152    0.0000 C   0  0
    5.0000  -12.1725    0.0000 C   0  0
    9.0829   -5.8386    0.0000 C   0  0
  2  1  2  0
  3  1  1  0
  4  2  1  0
  5 11  1  0
  6  3  1  0
  7  1  1  0
  8  5  1  0
  9  7  1  0
 10  5  2  0
 11 14  1  0
 12  4  1  0
 13  9  2  0
 14 12  1  0
 15 13  1  0
 16  7  2  0
 17 16  1  0
 18  8  1  0
 19  8  1  0
 20  8  1  0
 21 17  2  0
  6  4  2  0
 13 21  1  0
M  END
> <COMPOUND_ID>
DNDI1417246

$$$$

  SciTegic04051205032D

 23 26  0  0  0  0            999 V2000
   10.3708   -6.4313    0.0000 C   0  0
   11.1990   -6.4313    0.0000 C   0  0
    9.9508   -7.1514    0.0000 C   0  0
    9.1407   -7.1514    0.0000 N   0  0
   11.6071   -7.1394    0.0000 C   0  0
   10.3708   -7.8715    0.0000 C   0  0
   11.1990   -7.8715    0.0000 C   0  0
    6.6383   -8.5916    0.0000 C   0  0
    7.4634   -8.5916    0.0000 C   0  0
   11.6161   -5.7202    0.0000 N   0  0
    6.2242   -7.8505    0.0000 C   0  0
    8.7086   -7.8505    0.0000 N   0  0
    6.2242   -9.2907    0.0000 O   0  0
    5.4110   -7.8625    0.0000 O   0  0
   12.4322   -7.1424    0.0000 O   0  0
    7.8954   -7.8505    0.0000 C   0  0
    6.6383   -7.1514    0.0000 C   0  0
    7.4634   -7.1514    0.0000 C   0  0
    9.9598   -5.7202    0.0000 C   0  0
   11.1990   -5.0000    0.0000 C   0  0
    5.4110   -9.2757    0.0000 C   0  0
    5.0000   -8.5556    0.0000 C   0  0
   10.3708   -5.0000    0.0000 C   0  0
  2  1  2  0
  3  1  1  0
  4  3  2  0
  5  2  1  0
  6  3  1  0
  7  6  2  0
  8  9  2  0
  9 16  1  0
 10  2  1  0
 11 17  2  0
 12  4  1  0
 13  8  1  0
 14 11  1  0
 15  5  2  0
 16 12  1  0
 17 18  1  0
 18 16  2  0
 19  1  1  0
 20 23  1  0
 21 13  1  0
 22 14  1  0
 23 19  2  0
 10 20  2  0
  5  7  1  0
  8 11  1  0
 21 22  1  0
M  END
> <COMPOUND_ID>
DNDI1417247

$$$$

  SciTegic04051205032D

 21 24  0  0  0  0            999 V2000
    7.1809   -7.8092    0.0000 N   0  0
    7.0014   -8.7333    0.0000 N   0  0
    7.4301   -8.3419    0.0000 C   0  0
    6.4913   -8.4596    0.0000 C   0  0
    6.5893   -7.8906    0.0000 N   0  0
    7.1868   -7.1822    0.0000 C   0  0
    7.6724   -6.3120    0.0000 C   0  0
    8.6849   -6.3120    0.0000 O   0  0
    7.7039   -8.0466    0.0000 C   0  0
    9.1755   -7.1822    0.0000 C   0  0
    5.9615   -8.7176    0.0000 C   0  0
    8.6849   -8.0466    0.0000 C   0  0
    9.1755   -5.2475    0.0000 O   0  0
    7.9933   -8.4439    0.0000 S   0  0
    5.4503   -8.4439    0.0000 O   0  0
    7.6724   -5.2475    0.0000 C   0  0
    5.8624   -9.3239    0.0000 C   0  0
    9.1755   -8.9178    0.0000 O   0  0
    5.0000   -8.8717    0.0000 C   0  0
    5.2816   -9.4044    0.0000 C   0  0
    7.0544   -9.3239    0.0000 C   0  0
  2  3  1  0
  3  1  1  0
  4  5  2  0
  5  1  1  0
  6  1  1  0
  7  6  1  0
  8  7  1  0
  9  6  1  0
 10 12  1  0
 11  4  1  0
 12  9  1  0
 13 16  1  0
 14  3  2  0
 15 11  1  0
 16  7  1  0
 17 11  2  0
 18 12  2  0
 19 15  1  0
 20 17  1  0
 21  2  1  0
  2  4  1  0
  8 10  1  0
 13 10  1  0
 19 20  2  0
M  END
> <COMPOUND_ID>
DNDI1417248

$$$$

  SciTegic04051205032D

 23 25  0  0  0  0            999 V2000
    7.8596   -7.0562    0.0000 C   0  0
    8.5688   -7.4711    0.0000 N   0  0
    8.5688   -5.8187    0.0000 C   0  0
    9.2781   -7.0562    0.0000 C   0  0
    7.8596   -6.2375    0.0000 C   0  0
    9.2781   -6.2375    0.0000 C   0  0
    7.1428   -7.4711    0.0000 C   0  0
    9.9911   -7.4711    0.0000 N   0  0
    9.9911   -8.2860    0.0000 N   0  0
    7.1428   -5.8187    0.0000 C   0  0
   11.4134   -8.3161    0.0000 C   0  0
   11.4134   -7.4862    0.0000 C   0  0
   10.6965   -8.7123    0.0000 C   0  0
    6.4297   -7.0562    0.0000 C   0  0
    6.4297   -6.2375    0.0000 C   0  0
   10.6965   -7.0637    0.0000 O   0  0
    8.5688   -5.0000    0.0000 C   0  0
    5.7130   -7.4711    0.0000 O   0  0
   12.1377   -8.7387    0.0000 C   0  0
   12.1377   -7.0712    0.0000 C   0  0
    5.0000   -7.0637    0.0000 C   0  0
   12.8432   -8.3161    0.0000 C   0  0
   12.8658   -7.5051    0.0000 C   0  0
  2  1  1  0
  3  5  1  0
  4  2  1  0
  5  1  2  0
  6  4  1  0
  7  1  1  0
  8  4  2  0
  9  8  1  0
 10  5  1  0
 11 13  1  0
 12 11  1  0
 13  9  2  0
 14  7  2  0
 15 14  1  0
 16 12  1  0
 17  3  1  0
 18 14  1  0
 19 11  2  0
 20 12  2  0
 21 18  1  0
 22 19  1  0
 23 22  2  0
 15 10  2  0
  6  3  2  0
 23 20  1  0
M  END
> <COMPOUND_ID>
DNDI1417249

$$$$

  SciTegic04051205032D

 23 26  0  0  0  0            999 V2000
    7.1340   -5.8416    0.0000 C   0  0
    7.1340   -7.4967    0.0000 C   0  0
    6.4262   -6.2466    0.0000 C   0  0
    7.8594   -6.2466    0.0000 C   0  0
    6.4262   -7.0671    0.0000 C   0  0
    7.8594   -7.0671    0.0000 C   0  0
    7.8594   -5.4332    0.0000 C   0  0
    7.1587   -5.0000    0.0000 C   0  0
    6.3804   -7.8066    0.0000 O   0  0
    7.5602   -8.2151    0.0000 C   0  0
    7.1763  -10.3668    0.0000 N   0  0
    8.5778   -5.8416    0.0000 C   0  0
    5.7078   -5.8416    0.0000 C   0  0
    5.7078   -7.4967    0.0000 C   0  0
    8.5778   -7.4827    0.0000 C   0  0
    7.1587   -8.9370    0.0000 C   0  0
    7.5813   -9.6307    0.0000 C   0  0
    6.3558  -10.3668    0.0000 C   0  0
    7.6059  -11.0746    0.0000 C   0  0
    5.0000   -6.2466    0.0000 C   0  0
    9.2856   -7.0495    0.0000 C   0  0
    5.0000   -7.0671    0.0000 C   0  0
    9.2856   -6.2712    0.0000 C   0  0
  2  5  1  0
  3  1  1  0
  4  1  1  0
  5  3  2  0
  6  4  2  0
  7  1  1  0
  8  1  1  0
  9  2  1  0
 10  2  1  0
 11 17  1  0
 12  4  1  0
 13  3  1  0
 14  5  1  0
 15  6  1  0
 16 10  1  0
 17 16  1  0
 18 11  1  0
 19 11  1  0
 20 13  2  0
 21 23  1  0
 22 20  1  0
 23 12  2  0
  7  8  1  0
  2  6  1  0
 22 14  2  0
 21 15  2  0
M  END
> <COMPOUND_ID>
DNDI1417250

$$$$

  SciTegic04051205032D

 22 24  0  0  0  0            999 V2000
    7.1368   -7.4902    0.0000 C   0  0
    8.5706   -7.4764    0.0000 C   0  0
    7.8468   -7.9018    0.0000 C   0  0
    9.2943   -7.9018    0.0000 N   0  0
    6.4234   -7.9018    0.0000 C   0  0
   10.0248   -7.4731    0.0000 C   0  0
   10.7280   -6.2417    0.0000 C   0  0
   10.0248   -6.6533    0.0000 C   0  0
    8.5706   -6.6670    0.0000 O   0  0
    5.7100   -7.4902    0.0000 C   0  0
   11.4415   -6.6533    0.0000 C   0  0
   11.4415   -7.4731    0.0000 C   0  0
   10.7280   -7.8812    0.0000 C   0  0
    5.7100   -6.6773    0.0000 Cl  0  0
   10.7280   -5.4116    0.0000 C   0  0
    6.4234   -8.7421    0.0000 C   0  0
    5.0000   -7.9018    0.0000 C   0  0
   12.1515   -6.2417    0.0000 C   0  0
   11.4415   -5.0000    0.0000 C   0  0
    5.7100   -9.1537    0.0000 C   0  0
    5.0000   -8.7421    0.0000 C   0  0
   12.1515   -5.4116    0.0000 C   0  0
  2  3  1  0
  3  1  2  0
  4  2  1  0
  5  1  1  0
  6  4  1  0
  7  8  1  0
  8  6  2  0
  9  2  2  0
 10  5  2  0
 11 12  1  0
 12 13  2  0
 13  6  1  0
 14 10  1  0
 15  7  1  0
 16  5  1  0
 17 10  1  0
 18 11  1  0
 19 15  2  0
 20 16  2  0
 21 20  1  0
 22 18  2  0
 21 17  2  0
 11  7  2  0
 22 19  1  0
M  END
> <COMPOUND_ID>
DNDI1417251

$$$$

  SciTegic04051205032D

 21 22  0  0  0  0            999 V2000
    8.5260   -5.7132    0.0000 C   0  0
    7.8095   -6.9471    0.0000 C   0  0
    8.5094   -6.5325    0.0000 N   0  0
    7.0985   -6.5325    0.0000 N   0  0
    7.8095   -5.2985    0.0000 N   0  0
    7.1151   -5.6966    0.0000 C   0  0
    9.2458   -5.2985    0.0000 N   0  0
    7.8195   -7.7664    0.0000 N   0  0
    9.9623   -5.7132    0.0000 C   0  0
    7.1218   -8.1910    0.0000 C   0  0
    6.3932   -5.2820    0.0000 O   0  0
    5.7032   -9.0501    0.0000 C   0  0
    5.0000   -9.4747    0.0000 Cl  0  0
    7.1362   -9.0070    0.0000 C   0  0
    6.3766   -7.7996    0.0000 C   0  0
    6.4263   -9.4415    0.0000 C   0  0
    5.6866   -8.2242    0.0000 C   0  0
   10.3802   -5.0000    0.0000 C   0  0
   10.6622   -6.1311    0.0000 C   0  0
    9.5444   -6.4297    0.0000 C   0  0
    5.6789   -5.7629    0.0000 C   0  0
  2  3  1  0
  3  1  2  0
  4  6  1  0
  5  1  1  0
  6  5  2  0
  7  1  1  0
  8  2  1  0
  9  7  1  0
 10  8  1  0
 11  6  1  0
 12 17  2  0
 13 12  1  0
 14 10  1  0
 15 10  2  0
 16 14  2  0
 17 15  1  0
 18  9  1  0
 19  9  1  0
 20  9  1  0
 21 11  1  0
  4  2  2  0
 16 12  1  0
M  END
> <COMPOUND_ID>
DNDI1417252

$$$$

  SciTegic04051205032D

 22 24  0  0  0  0            999 V2000
    8.5746   -7.4743    0.0000 C   0  0
    9.2928   -7.8895    0.0000 C   0  0
   10.0069   -7.4703    0.0000 C   0  0
    7.1381   -6.6440    0.0000 C   0  0
    8.5622   -6.6440    0.0000 C   0  0
    7.8605   -7.8895    0.0000 C   0  0
    7.8564   -6.2330    0.0000 C   0  0
    7.1381   -7.4743    0.0000 C   0  0
    6.4199   -6.2330    0.0000 C   0  0
   10.7169   -7.8895    0.0000 C   0  0
    9.9945   -6.6440    0.0000 C   0  0
   11.4268   -6.6440    0.0000 C   0  0
   10.7044   -6.2330    0.0000 C   0  0
   11.4268   -7.4703    0.0000 C   0  0
   12.1409   -6.2206    0.0000 Cl  0  0
   10.0069   -9.1226    0.0000 N   0  0
    9.2928   -8.7116    0.0000 C   0  0
    5.7099   -6.6440    0.0000 C   0  0
    6.4199   -5.4152    0.0000 C   0  0
    5.0000   -6.2330    0.0000 C   0  0
    5.7099   -5.0000    0.0000 C   0  0
    5.0000   -5.4152    0.0000 C   0  0
  2  1  1  0
  3  2  1  0
  4  7  1  0
  5  1  1  0
  6  1  2  0
  7  5  2  0
  8  6  1  0
  9  4  1  0
 10  3  2  0
 11  3  1  0
 12 13  1  0
 13 11  2  0
 14 10  1  0
 15 12  1  0
 16 17  1  0
 17  2  1  0
 18  9  2  0
 19  9  1  0
 20 18  1  0
 21 19  2  0
 22 21  1  0
  4  8  2  0
 12 14  2  0
 22 20  2  0
M  END
> <COMPOUND_ID>
DNDI1417253

$$$$

  SciTegic04051205032D

 20 21  0  0  0  0            999 V2000
    9.8481   -6.6708    0.0000 N   0  0
    8.6138   -5.9480    0.0000 C   0  0
    9.0215   -6.6708    0.0000 N   0  0
   10.2668   -7.3898    0.0000 C   0  0
    7.7910   -5.9480    0.0000 C   0  0
    6.5420   -6.6708    0.0000 C   0  0
    7.3759   -6.6708    0.0000 C   0  0
   11.0823   -7.3898    0.0000 C   0  0
   11.5048   -6.6708    0.0000 N   0  0
    6.1417   -5.9480    0.0000 C   0  0
    9.0215   -5.2475    0.0000 O   0  0
    7.3759   -5.2475    0.0000 C   0  0
    6.5568   -5.2475    0.0000 C   0  0
    6.1121   -7.4046    0.0000 Cl  0  0
    5.3300   -5.9480    0.0000 Cl  0  0
    9.8666   -8.1125    0.0000 C   0  0
   12.3127   -6.6708    0.0000 C   0  0
   11.5048   -8.1125    0.0000 C   0  0
   12.7279   -7.3898    0.0000 C   0  0
   12.3276   -8.1125    0.0000 C   0  0
  2  3  1  0
  3  1  1  0
  4  1  2  0
  5  2  1  0
  6  7  2  0
  7  5  1  0
  8  4  1  0
  9  8  1  0
 10 13  2  0
 11  2  2  0
 12  5  2  0
 13 12  1  0
 14  6  1  0
 15 10  1  0
 16  4  1  0
 17  9  2  0
 18  8  2  0
 19 20  2  0
 20 18  1  0
 19 17  1  0
  6 10  1  0
M  END
> <COMPOUND_ID>
DNDI1417254

$$$$

  SciTegic04051205032D

 20 22  0  0  0  0            999 V2000
    9.2582   -7.4850    0.0000 N   0  0
    7.1313   -7.0526    0.0000 C   0  0
    7.8432   -7.4501    0.0000 N   0  0
    8.5507   -7.0526    0.0000 C   0  0
    9.2800   -8.2886    0.0000 N   0  0
   10.0530   -7.1880    0.0000 C   0  0
    7.1313   -6.2141    0.0000 C   0  0
    6.4150   -7.4501    0.0000 C   0  0
   10.5422   -7.8694    0.0000 C   0  0
    5.7031   -7.0526    0.0000 C   0  0
    6.4150   -5.8123    0.0000 C   0  0
    5.7031   -6.2141    0.0000 C   0  0
   10.0530   -8.5725    0.0000 C   0  0
    7.8432   -5.8123    0.0000 C   0  0
    8.5507   -6.2141    0.0000 C   0  0
    6.4150   -8.2886    0.0000 O   0  0
    5.0000   -7.4850    0.0000 Cl  0  0
    6.4150   -5.0000    0.0000 Cl  0  0
   10.2933   -6.4150    0.0000 C   0  0
   10.2758   -9.3586    0.0000 C   0  0
  2  3  2  0
  3  4  1  0
  4  1  1  0
  5  1  1  0
  6  1  1  0
  7 14  2  0
  8  2  1  0
  9  6  2  0
 10  8  2  0
 11  7  1  0
 12 11  2  0
 13  5  2  0
 14 15  1  0
 15  4  2  0
 16  8  1  0
 17 10  1  0
 18 11  1  0
 19  6  1  0
 20 13  1  0
 13  9  1  0
  2  7  1  0
 10 12  1  0
M  END
> <COMPOUND_ID>
DNDI1417255

$$$$

  SciTegic04051205032D

 22 25  0  0  0  0            999 V2000
    7.0932   -6.2285    0.0000 C   0  0
    8.4230   -6.2285    0.0000 C   0  0
    7.0932   -6.9889    0.0000 C   0  0
    6.4252   -5.8349    0.0000 C   0  0
    5.7305   -6.2285    0.0000 C   0  0
    7.7521   -7.3705    0.0000 O   0  0
    8.4230   -6.9889    0.0000 C   0  0
    6.4252   -7.3705    0.0000 C   0  0
    9.1237   -5.8200    0.0000 C   0  0
    5.7305   -6.9889    0.0000 C   0  0
    9.8274   -6.2375    0.0000 C   0  0
    9.9138   -7.0574    0.0000 S   0  0
    6.4342   -5.0060    0.0000 O   0  0
    5.0059   -5.8468    0.0000 O   0  0
    9.1297   -5.0000    0.0000 O   0  0
   10.5698   -5.9184    0.0000 C   0  0
   10.7160   -7.2184    0.0000 C   0  0
   11.1185   -6.5237    0.0000 C   0  0
    6.4521   -8.2054    0.0000 C   0  0
    5.0000   -7.3854    0.0000 C   0  0
    5.7216   -8.6377    0.0000 C   0  0
    5.0059   -8.2173    0.0000 C   0  0
  2  1  1  0
  3  1  2  0
  4  1  1  0
  5  4  1  0
  6  3  1  0
  7  2  2  0
  8  3  1  0
  9  2  1  0
 10  5  1  0
 11  9  1  0
 12 11  1  0
 13  4  2  0
 14  5  2  0
 15  9  2  0
 16 11  2  0
 17 12  1  0
 18 16  1  0
 19  8  1  0
 20 10  1  0
 21 19  2  0
 22 20  2  0
  7  6  1  0
 10  8  2  0
 22 21  1  0
 17 18  2  0
M  END
> <COMPOUND_ID>
DNDI1417256

$$$$

  SciTegic04051205032D

 21 22  0  0  0  0            999 V2000
    8.5694   -7.5704    0.0000 C   0  0
    7.1366   -7.5704    0.0000 C   0  0
    7.8548   -7.9792    0.0000 N   0  0
    8.6583   -6.7527    0.0000 N   0  0
    6.4327   -7.9792    0.0000 C   0  0
    9.4582   -6.5856    0.0000 C   0  0
    9.3160   -7.9046    0.0000 S   0  0
    9.7888   -5.8248    0.0000 C   0  0
    9.8742   -7.2966    0.0000 C   0  0
   10.6136   -5.7360    0.0000 C   0  0
    5.7039   -7.5598    0.0000 C   0  0
    7.1366   -6.7527    0.0000 O   0  0
   10.9585   -5.0000    0.0000 O   0  0
    5.7039   -6.7385    0.0000 F   0  0
   11.0971   -6.4114    0.0000 O   0  0
    6.4327   -8.8041    0.0000 C   0  0
    5.0000   -7.9792    0.0000 C   0  0
   11.9290   -6.3190    0.0000 C   0  0
    5.7039   -9.2236    0.0000 C   0  0
   12.4126   -6.9945    0.0000 C   0  0
    5.0000   -8.8041    0.0000 C   0  0
  2  3  1  0
  3  1  1  0
  4  1  2  0
  5  2  1  0
  6  4  1  0
  7  1  1  0
  8  6  1  0
  9  7  1  0
 10  8  1  0
 11  5  1  0
 12  2  2  0
 13 10  2  0
 14 11  1  0
 15 10  1  0
 16  5  2  0
 17 11  2  0
 18 15  1  0
 19 16  1  0
 20 18  1  0
 21 19  2  0
  9  6  2  0
 21 17  1  0
M  END
> <COMPOUND_ID>
DNDI1417257

$$$$

  SciTegic04051205032D

 23 25  0  0  0  0            999 V2000
    7.2909   -6.0480    0.0000 C   0  0
    6.8079   -6.6552    0.0000 C   0  0
    6.0489   -6.5448    0.0000 O   0  0
    6.2374   -5.2337    0.0000 C   0  0
   10.5294   -6.7380    0.0000 C   0  0
    8.0591   -5.9652    0.0000 C   0  0
    5.7590   -5.8410    0.0000 C   0  0
   11.2379   -7.1796    0.0000 C   0  0
    9.2920   -6.4712    0.0000 N   0  0
   10.5617   -5.9191    0.0000 C   0  0
    8.5330   -6.5724    0.0000 N   0  0
    9.8026   -7.1336    0.0000 C   0  0
    8.3674   -5.2475    0.0000 O   0  0
   11.9647   -6.7794    0.0000 C   0  0
   11.2931   -5.5327    0.0000 C   0  0
   11.9969   -5.9652    0.0000 C   0  0
    9.8578   -5.4913    0.0000 O   0  0
    7.1069   -7.3728    0.0000 C   0  0
    5.0000   -5.7306    0.0000 C   0  0
   11.2103   -8.0077    0.0000 C   0  0
   12.6732   -7.2210    0.0000 C   0  0
   11.9233   -8.4355    0.0000 C   0  0
   12.6456   -8.0491    0.0000 C   0  0
  2  1  2  0
  3  2  1  0
  4  1  1  0
  5 12  1  0
  6  1  1  0
  7  4  2  0
  8  5  1  0
  9 11  1  0
 10  5  2  0
 11  6  1  0
 12  9  2  0
 13  6  2  0
 14  8  2  0
 15 10  1  0
 16 15  2  0
 17 10  1  0
 18  2  1  0
 19  7  1  0
 20  8  1  0
 21 14  1  0
 22 20  2  0
 23 22  1  0
  7  3  1  0
 14 16  1  0
 23 21  2  0
M  END
> <COMPOUND_ID>
DNDI1417258

$$$$

  SciTegic04051205032D

 23 25  0  0  0  0            999 V2000
   10.9156   -8.2054    0.0000 N   0  0
   11.0137   -9.0165    0.0000 N   0  0
    6.6468   -7.1443    0.0000 C   0  0
   10.1559   -7.8157    0.0000 C   0  0
    9.4478   -8.2618    0.0000 C   0  0
    6.2424   -6.4508    0.0000 C   0  0
   12.1973   -8.4504    0.0000 C   0  0
   11.6557   -7.8623    0.0000 C   0  0
   11.8419   -9.1758    0.0000 C   0  0
    7.8990   -7.8623    0.0000 N   0  0
    6.2424   -7.8501    0.0000 C   0  0
    8.7224   -7.8623    0.0000 N   0  0
    7.4873   -7.1443    0.0000 C   0  0
    9.4673   -9.0876    0.0000 O   0  0
    5.4190   -6.4410    0.0000 C   0  0
    5.4190   -7.8623    0.0000 C   0  0
    5.0000   -7.1443    0.0000 C   0  0
    6.6345   -8.5681    0.0000 O   0  0
    6.6468   -5.7230    0.0000 C   0  0
   12.2193   -9.9036    0.0000 C   0  0
    5.0098   -5.7107    0.0000 C   0  0
    6.2571   -5.0000    0.0000 C   0  0
    5.4092   -5.0000    0.0000 C   0  0
  2  1  1  0
  3 13  1  0
  4  1  1  0
  5  4  1  0
  6  3  2  0
  7  8  2  0
  8  1  1  0
  9  2  2  0
 10 12  1  0
 11  3  1  0
 12  5  1  0
 13 10  2  0
 14  5  2  0
 15  6  1  0
 16 11  2  0
 17 16  1  0
 18 11  1  0
 19  6  1  0
 20  9  1  0
 21 15  1  0
 22 19  2  0
 23 22  1  0
  9  7  1  0
 17 15  2  0
 23 21  2  0
M  END
> <COMPOUND_ID>
DNDI1417259

$$$$

  SciTegic04051205032D

 23 25  0  0  0  0            999 V2000
    6.1586   -6.5402    0.0000 N   0  0
    5.8801   -5.2475    0.0000 N   0  0
    5.1650   -5.6566    0.0000 N   0  0
    5.3335   -6.4611    0.0000 C   0  0
    6.4887   -5.7907    0.0000 C   0  0
    6.5677   -7.2553    0.0000 N   0  0
    6.1586   -7.9636    0.0000 C   0  0
    6.5677   -8.6786    0.0000 C   0  0
    7.3860   -8.6786    0.0000 C   0  0
    7.8019   -9.4006    0.0000 C   0  0
   11.1058  -10.8445    0.0000 C   0  0
    8.6236   -9.4006    0.0000 O   0  0
   10.2773  -10.8445    0.0000 O   0  0
    6.5539  -10.1089    0.0000 C   0  0
    6.1517   -9.3869    0.0000 C   0  0
    7.3860  -10.1157    0.0000 C   0  0
    9.0362  -10.1157    0.0000 C   0  0
    9.8579  -10.1226    0.0000 C   0  0
   11.5046  -10.1226    0.0000 C   0  0
   11.5046  -11.5562    0.0000 C   0  0
   12.3332  -10.1226    0.0000 C   0  0
   12.3332  -11.5562    0.0000 C   0  0
   12.7526  -10.8445    0.0000 C   0  0
  2  5  2  0
  3  4  2  0
  4  1  1  0
  5  1  1  0
  6  1  1  0
  7  6  2  0
  8  7  1  0
  9  8  2  0
 10  9  1  0
 11 13  1  0
 12 10  1  0
 13 18  1  0
 14 15  2  0
 15  8  1  0
 16 14  1  0
 17 12  1  0
 18 17  1  0
 19 11  1  0
 20 11  2  0
 21 19  2  0
 22 20  1  0
 23 22  2  0
  3  2  1  0
 10 16  2  0
 23 21  1  0
M  END
> <COMPOUND_ID>
DNDI1417260

$$$$

  SciTegic04051205032D

 23 25  0  0  0  0            999 V2000
    7.2161   -7.1146    0.0000 N   0  0
    7.7059   -6.4486    0.0000 C   0  0
    7.2161   -5.7796    0.0000 C   0  0
    6.4306   -6.8607    0.0000 C   0  0
    6.4306   -6.0334    0.0000 C   0  0
    7.4700   -7.9031    0.0000 C   0  0
    7.9807   -9.4741    0.0000 N   0  0
    8.2794   -8.0733    0.0000 C   0  0
    8.5332   -6.4486    0.0000 C   0  0
    7.4700   -5.0000    0.0000 C   0  0
    5.7078   -7.2729    0.0000 C   0  0
    5.7078   -5.6242    0.0000 C   0  0
    8.8319   -7.4611    0.0000 O   0  0
    7.6820  -10.8629    0.0000 C   0  0
    8.5332   -8.8499    0.0000 C   0  0
    8.2316  -10.2506    0.0000 C   0  0
    6.8816  -10.6837    0.0000 C   0  0
    7.9449  -11.6424    0.0000 C   0  0
    5.0000   -6.0423    0.0000 C   0  0
    5.0000   -6.8607    0.0000 C   0  0
    6.3290  -11.2990    0.0000 C   0  0
    7.3983  -12.2577    0.0000 C   0  0
    6.5829  -12.0844    0.0000 C   0  0
  2  1  1  0
  3  2  2  0
  4  1  1  0
  5  4  1  0
  6  1  1  0
  7 15  1  0
  8  6  1  0
  9  2  1  0
 10  3  1  0
 11  4  2  0
 12  5  2  0
 13  8  1  0
 14 16  1  0
 15  8  1  0
 16  7  1  0
 17 14  2  0
 18 14  1  0
 19 20  2  0
 20 11  1  0
 21 17  1  0
 22 18  2  0
 23 22  1  0
  3  5  1  0
 19 12  1  0
 23 21  2  0
M  END
> <COMPOUND_ID>
DNDI1417261

$$$$

  SciTegic04051205032D

 20 21  0  0  0  0            999 V2000
    6.7995   -7.0967    0.0000 N   0  0
    7.6205   -7.0967    0.0000 C   0  0
    7.8734   -6.3048    0.0000 C   0  0
    6.5424   -6.3048    0.0000 C   0  0
    7.2100   -5.8197    0.0000 S   0  0
    6.3144   -7.7602    0.0000 C   0  0
    8.6653   -6.0560    0.0000 C   0  0
    5.7588   -6.0560    0.0000 S   0  0
    8.1098   -7.7602    0.0000 N   0  0
    8.8395   -5.2475    0.0000 O   0  0
    6.6420   -8.5065    0.0000 C   0  0
    9.2749   -6.6033    0.0000 O   0  0
    5.4934   -7.6689    0.0000 C   0  0
    7.4629   -8.5936    0.0000 C   0  0
    6.1651   -9.1741    0.0000 C   0  0
   10.0627   -6.3546    0.0000 C   0  0
    7.7988   -9.3482    0.0000 C   0  0
    5.0000   -8.3324    0.0000 C   0  0
   10.2369   -5.5543    0.0000 C   0  0
    5.3359   -9.0912    0.0000 C   0  0
  2  1  1  0
  3  2  2  0
  4  1  1  0
  5  4  1  0
  6  1  1  0
  7  3  1  0
  8  4  2  0
  9  2  1  0
 10  7  2  0
 11  6  1  0
 12  7  1  0
 13  6  2  0
 14 11  1  0
 15 11  2  0
 16 12  1  0
 17 14  1  0
 18 13  1  0
 19 16  1  0
 20 18  2  0
  5  3  1  0
 20 15  1  0
M  END
> <COMPOUND_ID>
DNDI1417262

$$$$

  SciTegic04051205032D

 20 21  0  0  0  0            999 V2000
    7.1141   -6.2434    0.0000 C   0  0
    7.8174   -6.6453    0.0000 C   0  0
    6.4108   -6.6453    0.0000 C   0  0
    9.3203   -6.6118    0.0000 N   0  0
   10.7269   -6.6118    0.0000 C   0  0
   10.0236   -6.2057    0.0000 C   0  0
   11.4344   -6.2057    0.0000 C   0  0
    7.1141   -5.4187    0.0000 C   0  0
    8.6044   -6.2057    0.0000 O   0  0
   12.1837   -6.5448    0.0000 S   0  0
    5.7033   -6.2225    0.0000 C   0  0
   12.7280   -5.9336    0.0000 C   0  0
    7.8132   -7.5495    0.0000 O   0  0
   11.5307   -5.4019    0.0000 C   0  0
   12.3344   -5.2177    0.0000 C   0  0
    6.4066   -7.4658    0.0000 Cl  0  0
   10.0236   -5.3894    0.0000 N   0  0
    6.4108   -5.0042    0.0000 C   0  0
    5.7075   -5.4061    0.0000 C   0  0
    5.0000   -5.0000    0.0000 C   0  0
  2  1  1  0
  3  1  1  0
  4  9  1  0
  5  6  1  0
  6  4  2  0
  7  5  1  0
  8  1  2  0
  9  2  1  0
 10  7  1  0
 11  3  2  0
 12 10  1  0
 13  2  2  0
 14  7  2  0
 15 14  1  0
 16  3  1  0
 17  6  1  0
 18  8  1  0
 19 18  2  0
 20 19  1  0
 11 19  1  0
 15 12  2  0
M  END
> <COMPOUND_ID>
DNDI1417263

$$$$

  SciTegic04051205032D

 18 19  0  0  0  0            999 V2000
   11.0605   -6.7469    0.0000 C   0  0
   10.3211   -6.3828    0.0000 C   0  0
    8.8983   -6.4668    0.0000 N   0  0
    8.1869   -6.8841    0.0000 C   0  0
    9.6321   -6.8617    0.0000 O   0  0
   11.3294   -7.5517    0.0000 C   0  0
   11.7524   -6.3295    0.0000 C   0  0
    7.4783   -6.4808    0.0000 C   0  0
   12.1977   -7.5479    0.0000 O   0  0
   10.3156   -5.5594    0.0000 O   0  0
   12.4106   -6.8225    0.0000 C   0  0
    7.4783   -5.6545    0.0000 C   0  0
    6.7528   -6.8841    0.0000 C   0  0
    8.1869   -7.7104    0.0000 N   0  0
    6.0414   -5.6545    0.0000 C   0  0
    6.0414   -6.4808    0.0000 C   0  0
    6.7528   -5.2335    0.0000 C   0  0
    5.3300   -5.2475    0.0000 Br  0  0
  2  1  1  0
  3  5  1  0
  4  3  2  0
  5  2  1  0
  6  1  2  0
  7  1  1  0
  8  4  1  0
  9  6  1  0
 10  2  2  0
 11  7  2  0
 12  8  2  0
 13  8  1  0
 14  4  1  0
 15 16  1  0
 16 13  2  0
 17 12  1  0
 18 15  1  0
 11  9  1  0
 17 15  2  0
M  END
> <COMPOUND_ID>
DNDI1417264

$$$$

  SciTegic04051205032D

 23 25  0  0  0  0            999 V2000
    6.2644   -6.7159    0.0000 C   0  0
   10.4930   -6.8097    0.0000 C   0  0
    6.9723   -6.3385    0.0000 C   0  0
    9.0827   -6.7427    0.0000 N   0  0
    5.5352   -6.3150    0.0000 N   0  0
   11.2199   -6.4177    0.0000 C   0  0
    7.6613   -6.7293    0.0000 C   0  0
    6.2219   -7.5601    0.0000 C   0  0
    9.8063   -6.3943    0.0000 N   0  0
   10.4540   -7.6237    0.0000 O   0  0
    7.6724   -7.5868    0.0000 C   0  0
    6.9511   -7.9989    0.0000 C   0  0
    8.4094   -6.3385    0.0000 C   0  0
   11.9435   -6.8331    0.0000 C   0  0
   11.2334   -5.5959    0.0000 C   0  0
   12.6683   -5.6204    0.0000 C   0  0
   12.6683   -6.4311    0.0000 C   0  0
   11.9569   -5.1805    0.0000 C   0  0
   13.3840   -5.2475    0.0000 F   0  0
    5.4950   -7.9754    0.0000 O   0  0
    6.9723   -5.5166    0.0000 C   0  0
    5.5352   -5.4764    0.0000 C   0  0
    6.2487   -5.0744    0.0000 C   0  0
  2  9  1  0
  3  1  1  0
  4 13  2  0
  5  1  1  0
  6  2  1  0
  7  3  2  0
  8  1  2  0
  9  4  1  0
 10  2  2  0
 11 12  2  0
 12  8  1  0
 13  7  1  0
 14  6  2  0
 15  6  1  0
 16 18  1  0
 17 14  1  0
 18 15  2  0
 19 16  1  0
 20  8  1  0
 21  3  1  0
 22  5  2  0
 23 22  1  0
  7 11  1  0
 21 23  2  0
 16 17  2  0
M  END
> <COMPOUND_ID>
DNDI1417265

$$$$

  SciTegic04051205032D

 22 23  0  0  0  0            999 V2000
    7.2805   -6.6523    0.0000 C   0  0
    6.5712   -6.2392    0.0000 N   0  0
    8.7618   -6.6148    0.0000 N   0  0
    9.4753   -6.2017    0.0000 C   0  0
   10.1846   -6.6106    0.0000 C   0  0
    8.0608   -6.2100    0.0000 O   0  0
   10.8898   -6.2017    0.0000 C   0  0
   11.5991   -6.6106    0.0000 C   0  0
    7.2680   -7.5536    0.0000 O   0  0
   11.6033   -7.4284    0.0000 C   0  0
   10.1846   -7.4284    0.0000 C   0  0
   10.8898   -7.8373    0.0000 C   0  0
    5.1650   -5.4089    0.0000 O   0  0
    9.4753   -5.3880    0.0000 N   0  0
   12.3043   -6.1975    0.0000 O   0  0
   12.3043   -7.8290    0.0000 O   0  0
    6.5837   -5.4131    0.0000 C   0  0
    5.8660   -6.6398    0.0000 C   0  0
    5.8702   -5.0000    0.0000 C   0  0
    5.1567   -6.2267    0.0000 C   0  0
   12.3043   -5.3755    0.0000 C   0  0
   13.0178   -7.4242    0.0000 C   0  0
  2  1  1  0
  3  6  1  0
  4  3  2  0
  5  4  1  0
  6  1  1  0
  7  5  2  0
  8  7  1  0
  9  1  2  0
 10 12  1  0
 11  5  1  0
 12 11  2  0
 13 20  1  0
 14  4  1  0
 15  8  1  0
 16 10  1  0
 17  2  1  0
 18  2  1  0
 19 17  1  0
 20 18  1  0
 21 15  1  0
 22 16  1  0
 19 13  1  0
 10  8  2  0
M  END
> <COMPOUND_ID>
DNDI1417266

$$$$

  SciTegic04051205032D

 24 27  0  0  0  0            999 V2000
    7.8573   -9.1235    0.0000 N   0  0
    8.5737   -8.7112    0.0000 C   0  0
    7.1408   -8.7112    0.0000 C   0  0
    7.8573   -7.4699    0.0000 C   0  0
    8.5737   -7.8782    0.0000 C   0  0
    7.1450   -7.8823    0.0000 C   0  0
    6.4328   -9.1235    0.0000 C   0  0
    9.2860   -9.1193    0.0000 C   0  0
    6.4328   -9.9440    0.0000 N   0  0
    9.2860   -9.9482    0.0000 N   0  0
    7.8531   -6.6494    0.0000 C   0  0
    5.7205  -10.3564    0.0000 C   0  0
    9.9982  -10.3564    0.0000 C   0  0
    9.9940   -8.7070    0.0000 C   0  0
    5.7163   -8.7070    0.0000 C   0  0
    7.1367   -6.2413    0.0000 C   0  0
    8.5653   -6.2371    0.0000 C   0  0
    5.0000   -9.9440    0.0000 C   0  0
   10.7145   -9.9440    0.0000 C   0  0
   10.7105   -9.1152    0.0000 C   0  0
    8.5612   -5.4124    0.0000 C   0  0
    5.0000   -9.1193    0.0000 C   0  0
    7.1325   -5.4166    0.0000 C   0  0
    7.8490   -5.0000    0.0000 C   0  0
  2  1  2  0
  3  1  1  0
  4  5  2  0
  5  2  1  0
  6  3  2  0
  7  3  1  0
  8  2  1  0
  9  7  1  0
 10  8  2  0
 11  4  1  0
 12  9  2  0
 13 10  1  0
 14  8  1  0
 15  7  2  0
 16 11  1  0
 17 11  2  0
 18 12  1  0
 19 13  2  0
 20 14  2  0
 21 17  1  0
 22 15  1  0
 23 16  2  0
 24 23  1  0
  6  4  1  0
 19 20  1  0
 18 22  2  0
 24 21  2  0
M  END
> <COMPOUND_ID>
DNDI1417267

$$$$

  SciTegic04051205032D

 20 21  0  0  0  0            999 V2000
   10.3529   -6.4622    0.0000 C   0  0
    9.6568   -6.8808    0.0000 N   0  0
    8.1645   -6.9127    0.0000 C   0  0
    7.4547   -6.4986    0.0000 C   0  0
    8.9471   -6.4622    0.0000 O   0  0
    6.0398   -6.4759    0.0000 C   0  0
    6.7449   -6.8990    0.0000 C   0  0
   11.0627   -6.8671    0.0000 C   0  0
   11.7724   -6.4622    0.0000 N   0  0
    6.0398   -5.6569    0.0000 C   0  0
    8.1645   -7.8089    0.0000 O   0  0
    7.4593   -5.6796    0.0000 C   0  0
    6.7495   -5.2611    0.0000 C   0  0
   10.3529   -5.6433    0.0000 N   0  0
    5.3300   -6.8854    0.0000 Cl  0  0
    5.3436   -5.2475    0.0000 Cl  0  0
   12.4822   -6.8671    0.0000 C   0  0
   11.0627   -7.6770    0.0000 C   0  0
   12.4822   -7.6770    0.0000 C   0  0
   11.7724   -8.0865    0.0000 C   0  0
  2  1  2  0
  3  5  1  0
  4  3  1  0
  5  2  1  0
  6  7  1  0
  7  4  2  0
  8  1  1  0
  9  8  2  0
 10 13  1  0
 11  3  2  0
 12  4  1  0
 13 12  2  0
 14  1  1  0
 15  6  1  0
 16 10  1  0
 17  9  1  0
 18  8  1  0
 19 20  1  0
 20 18  2  0
 17 19  2  0
  6 10  2  0
M  END
> <COMPOUND_ID>
DNDI1417268

$$$$

  SciTegic04051205032D

 18 20  0  0  0  0            999 V2000
    8.4420   -6.1987    0.0000 C   0  0
    7.7469   -6.5982    0.0000 N   0  0
    8.4461   -5.3996    0.0000 C   0  0
    7.0685   -5.3871    0.0000 C   0  0
    7.0602   -6.1862    0.0000 C   0  0
    9.1287   -6.5982    0.0000 C   0  0
    9.1204   -7.3973    0.0000 N   0  3
    6.3735   -5.0000    0.0000 C   0  0
    6.3735   -6.5982    0.0000 C   0  0
    5.6867   -5.3871    0.0000 C   0  0
    9.1412   -5.0125    0.0000 C   0  0
    5.6867   -6.1862    0.0000 C   0  0
    5.0000   -5.0000    0.0000 Br  0  0
   11.1764   -7.7844    0.0000 O   0  0
    9.8279   -5.4121    0.0000 C   0  0
    9.8029   -7.7844    0.0000 C   0  0
    9.8196   -6.2112    0.0000 C   0  0
   10.4814   -7.3848    0.0000 C   0  0
  2  1  1  0
  3  1  2  0
  4  3  1  0
  5  2  1  0
  6  1  1  0
  7  6  1  0
  8  4  1  0
  9  5  1  0
 10  8  2  0
 11  3  1  0
 12  9  2  0
 13 10  1  0
 14 18  1  0
 15 17  1  0
 16  7  1  0
 17  6  1  0
 18 16  1  0
  5  4  2  0
 11 15  1  0
 12 10  1  0
M  CHG  1   7   1
M  END
> <COMPOUND_ID>
DNDI1417269

$$$$

  SciTegic04051205032D

 20 23  0  0  0  0            999 V2000
    7.6230   -6.4296    0.0000 C   0  0
    6.0956   -6.4296    0.0000 C   0  0
    8.4335   -6.4296    0.0000 C   0  0
    6.9428   -6.7392    0.0000 C   0  0
    7.0731   -7.1180    0.0000 C   0  0
    7.6230   -5.6843    0.0000 C   0  0
    8.8448   -5.7128    0.0000 C   0  0
    9.6554   -5.7250    0.0000 C   0  0
    6.3563   -6.8084    0.0000 C   0  0
    6.9184   -5.3218    0.0000 C   0  0
   10.1034   -6.3971    0.0000 C   0  0
    6.0956   -5.6476    0.0000 C   0  0
    5.5091   -7.1180    0.0000 C   0  0
    8.8734   -7.1302    0.0000 C   0  0
    9.7043   -7.1302    0.0000 C   0  0
    6.3563   -5.9897    0.0000 C   0  0
   10.0464   -5.0000    0.0000 Cl  0  0
   10.9262   -6.4093    0.0000 Cl  0  0
    5.3543   -6.4296    0.0000 C   0  0
    5.0000   -5.6843    0.0000 N   0  0
  2  4  1  0
  3  1  1  0
  4  1  1  0
  5  1  1  0
  6  1  1  0
  7  3  1  0
  8  7  2  0
  9  5  1  0
 10  6  1  0
 11 15  2  0
 12 10  1  0
 13  9  1  0
 14  3  2  0
 15 14  1  0
 16 10  1  0
 17  8  1  0
 18 11  1  0
 19  2  1  0
 20 19  1  0
 16  9  1  0
 12  2  1  0
 13  2  1  0
 11  8  1  0
M  END
> <COMPOUND_ID>
DNDI1417270

$$$$

  SciTegic04051205032D

 23 26  0  0  0  0            999 V2000
    6.9471   -7.6517    0.0000 C   0  0
    6.4494   -6.2977    0.0000 C   0  0
    5.6919   -6.5758    0.0000 C   0  0
    6.1677   -7.9224    0.0000 C   0  0
    7.0898   -6.8356    0.0000 N   0  0
    5.5310   -7.4065    0.0000 N   0  0
    7.4484   -8.3103    0.0000 C   0  0
    6.3945   -5.4634    0.0000 N   0  0
    5.1650   -5.9281    0.0000 N   0  0
    6.2006   -8.7567    0.0000 C   0  0
    6.9800   -8.9873    0.0000 C   0  0
    8.2827   -8.3103    0.0000 N   0  0
    5.5968   -5.2475    0.0000 O   0  0
    9.5269   -7.5858    0.0000 C   0  0
    8.7035   -7.5858    0.0000 N   0  0
    9.9513   -6.8503    0.0000 O   0  0
    9.9623   -8.2884    0.0000 O   0  0
    5.6188   -9.3532    0.0000 C   0  0
    7.1959   -9.7777    0.0000 C   0  0
   10.7784   -8.2737    0.0000 C   0  0
    5.8346  -10.1436    0.0000 C   0  0
    6.6141  -10.3522    0.0000 C   0  0
   11.1955   -8.9580    0.0000 C   0  0
  2  5  1  0
  3  2  1  0
  4  1  1  0
  5  1  2  0
  6  4  2  0
  7  1  1  0
  8  2  2  0
  9  3  2  0
 10  4  1  0
 11  7  1  0
 12  7  2  0
 13  8  1  0
 14 15  1  0
 15 12  1  0
 16 14  2  0
 17 14  1  0
 18 10  1  0
 19 11  1  0
 20 17  1  0
 21 18  2  0
 22 19  2  0
 23 20  1  0
 10 11  2  0
  6  3  1  0
 21 22  1  0
  9 13  1  0
M  END
> <COMPOUND_ID>
DNDI1417271

$$$$

  SciTegic04051205032D

 23 25  0  0  0  0            999 V2000
    7.5343   -6.2688    0.0000 C   0  0
    8.3608   -6.2139    0.0000 C   0  0
    7.2502   -5.4811    0.0000 N   0  0
    8.9419   -6.8015    0.0000 N   0  0
    8.5706   -5.4262    0.0000 N   0  0
    7.0855   -6.9855    0.0000 C   0  0
    8.7256   -7.5828    0.0000 N   0  0
    7.8733   -5.0000    0.0000 C   0  0
   10.1235   -7.9637    0.0000 C   0  0
   10.6950   -8.5514    0.0000 C   0  0
    9.3197   -8.1768    0.0000 C   0  0
   10.4819   -9.3359    0.0000 C   0  0
    7.4665   -7.7152    0.0000 O   0  0
    9.1066   -8.9807    0.0000 C   0  0
    9.6780   -9.5521    0.0000 C   0  0
    6.2688   -6.9468    0.0000 O   0  0
   11.0759   -9.9073    0.0000 O   0  0
   11.5117   -8.3544    0.0000 C   0  0
   10.3463   -7.1534    0.0000 C   0  0
    5.8200   -7.6377    0.0000 C   0  0
   11.7313   -7.5505    0.0000 C   0  0
   11.1437   -6.9565    0.0000 C   0  0
    5.0000   -7.6054    0.0000 C   0  0
  2  1  2  0
  3  1  1  0
  4  2  1  0
  5  2  1  0
  6  1  1  0
  7  4  2  0
  8  3  2  0
  9 11  1  0
 10  9  2  0
 11  7  1  0
 12 15  2  0
 13  6  2  0
 14 11  2  0
 15 14  1  0
 16  6  1  0
 17 12  1  0
 18 10  1  0
 19  9  1  0
 20 16  1  0
 21 22  1  0
 22 19  2  0
 23 20  1  0
  8  5  1  0
 12 10  1  0
 21 18  2  0
M  END
> <COMPOUND_ID>
DNDI1417272

$$$$

  SciTegic04051205032D

 22 24  0  0  0  0            999 V2000
    8.5261   -6.2986    0.0000 N   0  0
    7.8265   -5.8725    0.0000 C   0  0
    9.1572   -5.7398    0.0000 C   0  0
    5.7076   -6.0212    0.0000 C   0  0
    8.0114   -5.0563    0.0000 S   0  0
    5.6916   -6.8334    0.0000 C   0  0
    8.8236   -5.0000    0.0000 C   0  0
    6.4153   -5.7076    0.0000 N   0  0
   13.2181   -6.4836    0.0000 N   0  0
    7.0787   -6.1941    0.0000 N   0  0
   12.4180   -6.3389    0.0000 C   0  0
    9.9574   -5.8846    0.0000 C   0  0
    6.3550   -7.3601    0.0000 O   0  0
    5.0000   -5.5146    0.0000 O   0  0
    5.0321   -7.2756    0.0000 C   0  0
    6.0574   -8.1240    0.0000 C   0  0
    5.2292   -8.0798    0.0000 C   0  0
   10.2348   -6.6645    0.0000 C   0  0
   10.5042   -5.2574    0.0000 C   0  0
   11.6058   -6.1941    0.0000 C   0  0
   11.3324   -5.4101    0.0000 C   0  0
   11.0630   -6.8293    0.0000 C   0  0
  2  1  2  0
  3  1  1  0
  4  8  1  0
  5  2  1  0
  6  4  1  0
  7  3  2  0
  8 10  1  0
  9 11  3  0
 10  2  1  0
 11 20  1  0
 12  3  1  0
 13  6  1  0
 14  4  2  0
 15  6  2  0
 16 13  1  0
 17 15  1  0
 18 12  1  0
 19 12  2  0
 20 22  1  0
 21 19  1  0
 22 18  2  0
  5  7  1  0
 20 21  2  0
 16 17  2  0
M  END
> <COMPOUND_ID>
DNDI1417273

$$$$

  SciTegic04051205032D

 23 25  0  0  0  0            999 V2000
    7.9445   -6.8571    0.0000 C   0  0
    6.5423   -9.2468    0.0000 N   0  0
    7.9363   -9.2551    0.0000 N   0  0
    7.2476   -8.8485    0.0000 C   0  0
    7.2476   -6.4589    0.0000 C   0  0
    8.6332   -6.4548    0.0000 C   0  0
    6.5423  -10.0517    0.0000 C   0  0
    7.9280  -10.0641    0.0000 C   0  0
    7.9445   -7.6620    0.0000 C   0  0
    8.6332   -5.6582    0.0000 C   0  0
    6.5506   -6.8571    0.0000 C   0  0
    7.2476   -5.6499    0.0000 C   0  0
    9.3219   -6.8571    0.0000 C   0  0
    5.8620   -5.6499    0.0000 C   0  0
   10.0189   -5.6499    0.0000 C   0  0
    6.5506   -5.2516    0.0000 C   0  0
   10.0189   -6.4548    0.0000 C   0  0
    9.3219   -5.2516    0.0000 C   0  0
    5.8620   -6.4589    0.0000 C   0  0
   10.7034   -5.2475    0.0000 F   0  0
    5.1650   -5.2558    0.0000 F   0  0
    8.6332   -8.0603    0.0000 C   0  0
    8.6332   -8.8568    0.0000 C   0  0
  2  4  2  0
  3 23  1  0
  4  3  1  0
  5  1  1  0
  6  1  1  0
  7  8  2  0
  8  3  1  0
  9  1  2  0
 10  6  1  0
 11  5  2  0
 12  5  1  0
 13  6  2  0
 14 16  1  0
 15 18  1  0
 16 12  2  0
 17 13  1  0
 18 10  2  0
 19 11  1  0
 20 15  1  0
 21 14  1  0
 22  9  1  0
 23 22  1  0
 14 19  2  0
 15 17  2  0
  2  7  1  0
M  END
> <COMPOUND_ID>
DNDI1417274

$$$$

  SciTegic04051205032D

 24 27  0  0  0  0            999 V2000
    7.8486   -7.8886    0.0000 N   0  0
    8.5598   -7.4801    0.0000 C   0  0
    7.1373   -7.4801    0.0000 C   0  0
    7.1373   -6.6595    0.0000 C   0  0
    7.8486   -6.2473    0.0000 N   0  0
    8.5598   -6.6595    0.0000 N   0  0
    9.2673   -7.8886    0.0000 C   0  0
    9.2673   -8.7165    0.0000 N   0  0
    6.4261   -6.2473    0.0000 C   0  0
    6.4261   -7.8886    0.0000 C   0  0
    9.9786   -9.1360    0.0000 C   0  0
    9.9822   -7.4801    0.0000 C   0  0
    5.7149   -6.6595    0.0000 C   0  0
    6.4261   -5.4230    0.0000 C   0  0
    5.7149   -7.4801    0.0000 C   0  0
    6.4261   -8.7202    0.0000 C   0  0
   10.7044   -8.7202    0.0000 C   0  0
    5.0000   -7.8886    0.0000 C   0  0
    5.7149   -5.0000    0.0000 C   0  0
    5.0000   -6.2473    0.0000 C   0  0
    5.7149   -9.1360    0.0000 C   0  0
   10.7044   -7.8886    0.0000 C   0  0
    5.0000   -5.4157    0.0000 C   0  0
    5.0000   -8.7202    0.0000 C   0  0
  2  1  1  0
  3  1  2  0
  4  3  1  0
  5  4  2  0
  6  2  2  0
  7  2  1  0
  8  7  1  0
  9  4  1  0
 10  3  1  0
 11  8  2  0
 12  7  2  0
 13  9  2  0
 14  9  1  0
 15 10  1  0
 16 10  2  0
 17 22  2  0
 18 15  2  0
 19 14  2  0
 20 13  1  0
 21 16  1  0
 22 12  1  0
 23 19  1  0
 24 21  2  0
  6  5  1  0
 18 24  1  0
 11 17  1  0
 23 20  2  0
M  END
> <COMPOUND_ID>
DNDI1417275

$$$$

  SciTegic04051205032D

 22 24  0  0  0  0            999 V2000
    7.0005   -6.6823    0.0000 C   0  0
    6.2912   -6.2686    0.0000 C   0  0
    8.4919   -6.6505    0.0000 N   0  0
   10.6061   -6.2322    0.0000 C   0  0
    5.5320   -6.5959    0.0000 S   0  0
    7.7826   -6.2322    0.0000 O   0  0
    9.1875   -6.2322    0.0000 C   0  0
   11.3154   -6.6368    0.0000 C   0  0
    9.8968   -6.6368    0.0000 C   0  0
    7.0005   -7.5780    0.0000 O   0  0
    6.2140   -5.4501    0.0000 C   0  0
    5.0000   -5.9730    0.0000 C   0  0
    5.4183   -5.2638    0.0000 C   0  0
   12.0247   -6.2322    0.0000 C   0  0
    9.1875   -5.4138    0.0000 N   0  0
   10.6061   -5.4138    0.0000 C   0  0
   11.3154   -5.0000    0.0000 C   0  0
   11.3154   -7.4462    0.0000 C   0  0
   12.0247   -5.4138    0.0000 C   0  0
   12.7340   -6.6368    0.0000 C   0  0
   12.0247   -7.8554    0.0000 C   0  0
   12.7340   -7.4462    0.0000 C   0  0
  2  1  1  0
  3  6  1  0
  4  9  1  0
  5  2  1  0
  6  1  1  0
  7  3  2  0
  8  4  1  0
  9  7  1  0
 10  1  2  0
 11  2  2  0
 12  5  1  0
 13 11  1  0
 14  8  1  0
 15  7  1  0
 16  4  2  0
 17 16  1  0
 18  8  2  0
 19 17  2  0
 20 14  2  0
 21 18  1  0
 22 21  2  0
 12 13  2  0
 19 14  1  0
 20 22  1  0
M  END
> <COMPOUND_ID>
DNDI1417276

$$$$

  SciTegic04051205032D

 21 24  0  0  0  0            999 V2000
    8.9441   -6.5177    0.0000 N   0  0
    8.5514   -7.1771    0.0000 C   0  0
    7.4252   -6.5177    0.0000 N   0  0
    8.5514   -5.8707    0.0000 N   0  0
    7.8031   -5.8707    0.0000 N   0  0
    9.6775   -6.5177    0.0000 C   0  0
   10.0579   -5.8707    0.0000 C   0  0
   10.8284   -5.8707    0.0000 O   0  0
   10.0826   -7.1771    0.0000 C   0  0
   11.2013   -6.5177    0.0000 C   0  0
   10.8284   -7.1771    0.0000 C   0  0
   11.2088   -5.2475    0.0000 O   0  0
    8.9441   -7.8464    0.0000 S   0  0
    6.6341   -6.5177    0.0000 C   0  0
   10.0579   -5.2475    0.0000 C   0  0
   11.2088   -7.8464    0.0000 O   0  0
    6.2225   -7.2241    0.0000 C   0  0
    6.2225   -5.8485    0.0000 C   0  0
    5.4273   -7.2241    0.0000 C   0  0
    5.4273   -5.8485    0.0000 C   0  0
    5.0000   -6.5177    0.0000 C   0  0
  2  1  1  0
  3  2  1  0
  4  1  1  0
  5  4  2  0
  6  1  1  0
  7  6  1  0
  8  7  1  0
  9  6  1  0
 10 11  1  0
 11  9  1  0
 12 15  1  0
 13  2  2  0
 14  3  1  0
 15  7  1  0
 16 11  2  0
 17 14  1  0
 18 14  1  0
 19 17  1  0
 20 18  1  0
 21 20  1  0
  3  5  1  0
  8 10  1  0
 12 10  1  0
 21 19  1  0
M  END
> <COMPOUND_ID>
DNDI1417277

$$$$

  SciTegic04051205032D

 24 27  0  0  0  0            999 V2000
    7.1243   -7.0814    0.0000 C   0  0
    7.1243   -8.7429    0.0000 N   0  0
    7.8286   -7.4787    0.0000 N   0  0
    6.4155   -7.4787    0.0000 C   0  0
    7.8286   -8.3230    0.0000 C   0  0
    6.4155   -8.3230    0.0000 C   0  0
    6.6186   -6.4199    0.0000 C   0  0
    7.6097   -6.4199    0.0000 C   0  0
    8.5601   -8.7655    0.0000 C   0  0
    9.2915   -8.3456    0.0000 C   0  0
    5.7043   -7.0814    0.0000 C   0  0
    5.7043   -8.7429    0.0000 C   0  0
    5.8172   -6.5057    0.0000 C   0  0
    7.2756   -5.6682    0.0000 C   0  0
    8.4314   -6.5057    0.0000 C   0  0
    6.9482   -5.6682    0.0000 C   0  0
    5.0000   -7.4787    0.0000 C   0  0
    5.0000   -8.3230    0.0000 C   0  0
    8.9145   -5.8443    0.0000 C   0  0
    6.4426   -5.0000    0.0000 C   0  0
    5.3274   -5.8443    0.0000 C   0  0
    7.7632   -5.0000    0.0000 C   0  0
    8.5872   -5.0857    0.0000 C   0  0
    5.6186   -5.1128    0.0000 C   0  0
  2  5  2  0
  3  1  1  0
  4  1  1  0
  5  3  1  0
  6  4  2  0
  7  1  1  0
  8  1  1  0
  9  5  1  0
 10  9  2  0
 11  4  1  0
 12  6  1  0
 13  7  2  0
 14  8  2  0
 15  8  1  0
 16  7  1  0
 17 11  2  0
 18 17  1  0
 19 15  2  0
 20 16  2  0
 21 13  1  0
 22 14  1  0
 23 19  1  0
 24 21  2  0
  2  6  1  0
 23 22  2  0
 24 20  1  0
 18 12  2  0
M  END
> <COMPOUND_ID>
DNDI1417278

$$$$

  SciTegic04051205032D

 23 24  0  0  0  0            999 V2000
   10.0069   -7.2960    0.0000 N   0  0
   10.7165   -7.7094    0.0000 C   0  0
   10.0069   -6.4723    0.0000 N   0  0
    9.2943   -6.0620    0.0000 C   0  0
   10.7165   -8.5392    0.0000 C   0  0
   10.0069   -8.9464    0.0000 N   0  0
    9.2943   -5.2475    0.0000 O   0  0
    7.8783   -8.5392    0.0000 N   0  0
    7.1502   -8.9464    0.0000 C   0  0
    6.4376   -8.5392    0.0000 C   0  0
    5.7157   -8.9464    0.0000 C   0  0
   11.4322   -7.2960    0.0000 C   0  0
    6.4376  -10.1897    0.0000 C   0  0
    8.5755   -6.4723    0.0000 C   0  0
   10.0069   -9.7732    0.0000 C   0  0
   11.4322   -8.9464    0.0000 C   0  0
    7.1502   -9.7732    0.0000 C   0  0
    7.8783   -7.7094    0.0000 C   0  0
    5.7157   -9.7732    0.0000 C   0  0
    5.0000   -8.5300    0.0000 C   0  0
    8.5755   -7.2960    0.0000 C   0  0
   10.7165  -10.1897    0.0000 C   0  0
   11.4322   -9.7732    0.0000 C   0  0
  2  1  2  0
  3  1  1  0
  4  3  1  0
  5  2  1  0
  6  5  1  0
  7  4  2  0
  8 18  1  0
  9  8  1  0
 10  9  1  0
 11 10  2  0
 12  2  1  0
 13 17  1  0
 14  4  1  0
 15  6  2  0
 16  5  2  0
 17  9  2  0
 18 21  1  0
 19 13  2  0
 20 11  1  0
 21 14  1  0
 22 15  1  0
 23 16  1  0
 22 23  2  0
 19 11  1  0
M  END
> <COMPOUND_ID>
DNDI1417279

$$$$

  SciTegic04051205032D

 21 22  0  0  0  0            999 V2000
   10.8077   -6.0992    0.0000 N   0  0
    6.4054  -10.8191    0.0000 C   0  0
    5.7699  -10.3039    0.0000 C   0  0
   12.3648   -5.5439    0.0000 N   0  0
    7.1754  -10.5329    0.0000 C   0  0
    5.8959   -9.4853    0.0000 C   0  0
    7.3099   -9.7200    0.0000 C   0  0
    5.0000  -10.5987    0.0000 Cl  0  0
    6.6716   -9.2048    0.0000 C   0  0
    8.0770   -9.4223    0.0000 O   0  0
   10.0320   -6.3825    0.0000 C   0  0
   10.9508   -5.2834    0.0000 C   0  0
   11.4460   -6.6115    0.0000 C   0  0
   11.7207   -5.0000    0.0000 C   0  0
   12.2160   -6.3281    0.0000 C   0  0
    6.2709  -11.6464    0.0000 C   0  0
    8.2115   -8.6066    0.0000 C   0  0
    9.8860   -7.2069    0.0000 C   0  0
    8.9844   -8.3232    0.0000 C   0  0
    9.1161   -7.5045    0.0000 C   0  0
    5.4980  -11.9526    0.0000 C   0  0
  2  5  1  0
  3  6  1  0
  4 14  1  0
  5  7  2  0
  6  9  2  0
  7 10  1  0
  8  3  1  0
  9  7  1  0
 10 17  1  0
 11  1  1  0
 12  1  1  0
 13  1  1  0
 14 12  1  0
 15 13  1  0
 16  2  1  0
 17 19  1  0
 18 11  1  0
 19 20  1  0
 20 18  1  0
 21 16  1  0
  4 15  1  0
  3  2  2  0
M  END
> <COMPOUND_ID>
DNDI1417280

$$$$

  SciTegic04051205032D

 22 25  0  0  0  0            999 V2000
    7.6506   -7.5371    0.0000 C   0  0
    6.9802   -7.1417    0.0000 N   0  0
    7.6471   -8.3037    0.0000 N   0  0
    6.3270   -7.5371    0.0000 C   0  0
    6.3201   -8.3037    0.0000 C   0  0
    6.9802   -6.3785    0.0000 C   0  0
    8.3175   -7.1417    0.0000 N   0  0
    7.6300   -5.9900    0.0000 C   0  0
    8.4413   -5.9900    0.0000 C   0  0
    7.4340   -5.2475    0.0000 O   0  0
    8.8435   -6.6811    0.0000 C   0  0
    8.8367   -5.2887    0.0000 C   0  0
    8.9879   -8.3037    0.0000 C   0  0
    8.9879   -7.5405    0.0000 C   0  0
   10.0434   -5.9797    0.0000 C   0  0
    9.6411   -5.2887    0.0000 C   0  0
    9.6480   -6.6811    0.0000 C   0  0
   10.8685   -5.9763    0.0000 Cl  0  0
    5.6601   -7.1520    0.0000 C   0  0
    5.6601   -8.6819    0.0000 C   0  0
    5.0000   -8.3003    0.0000 C   0  0
    5.0000   -7.5371    0.0000 C   0  0
  2  1  1  0
  3  1  1  0
  4  2  1  0
  5  3  1  0
  6  2  1  0
  7  1  2  0
  8  6  1  0
  9  8  1  0
 10  8  2  0
 11  9  2  0
 12  9  1  0
 13  3  1  0
 14  7  1  0
 15 16  1  0
 16 12  2  0
 17 11  1  0
 18 15  1  0
 19  4  2  0
 20  5  2  0
 21 20  1  0
 22 19  1  0
 13 14  1  0
  4  5  1  0
 22 21  2  0
 17 15  2  0
M  END
> <COMPOUND_ID>
DNDI1417281

$$$$

  SciTegic04051205032D

 22 23  0  0  0  0            999 V2000
    6.4097   -6.6950    0.0000 N   0  0
    7.2039   -6.6950    0.0000 C   0  0
    5.9902   -7.4171    0.0000 C   0  0
    7.6337   -5.9695    0.0000 C   0  0
    7.6337   -7.4171    0.0000 C   0  0
    6.4097   -8.1116    0.0000 N   0  0
    7.2349   -8.1116    0.0000 C   0  0
    7.6819   -8.8130    0.0000 C   0  0
    8.9472  -10.9070    0.0000 C   0  0
    8.5071   -8.7890    0.0000 C   0  0
    5.1650   -7.4411    0.0000 O   0  0
    9.7965  -10.8760    0.0000 C   0  0
    8.5277  -10.2055    0.0000 C   0  0
    8.3524   -6.3683    0.0000 F   0  0
    8.0532   -5.2475    0.0000 F   0  0
    6.9082   -5.5501    0.0000 F   0  0
    8.9265   -9.4835    0.0000 C   0  0
   10.1918  -10.1574    0.0000 C   0  0
    9.7724   -9.4560    0.0000 C   0  0
    8.5414  -11.6187    0.0000 O   0  0
   10.2503  -11.5741    0.0000 O   0  0
    7.7335  -11.6187    0.0000 C   0  0
  2  1  2  0
  3  1  1  0
  4  2  1  0
  5  2  1  0
  6  3  1  0
  7  6  1  0
  8  7  1  0
  9 13  1  0
 10  8  2  0
 11  3  2  0
 12 18  1  0
 13 17  2  0
 14  4  1  0
 15  4  1  0
 16  4  1  0
 17 10  1  0
 18 19  2  0
 19 17  1  0
 20  9  1  0
 21 12  1  0
 22 20  1  0
  7  5  2  0
 12  9  2  0
M  END
> <COMPOUND_ID>
DNDI1417282

$$$$

  SciTegic04051205032D

 21 23  0  0  0  0            999 V2000
    7.7883   -7.7671    0.0000 C   0  0
    7.7883   -8.5091    0.0000 C   0  0
    6.5120   -7.7671    0.0000 C   0  0
    9.0925   -7.7671    0.0000 C   0  0
    8.4252   -7.3985    0.0000 C   0  0
    9.0925   -8.5091    0.0000 C   0  0
    6.5035   -8.5324    0.0000 N   0  0
    8.4322   -8.8847    0.0000 O   0  0
    7.1544   -8.8847    0.0000 N   0  0
    5.8486   -7.3705    0.0000 C   0  0
    8.4252   -6.5888    0.0000 C   0  0
    9.7831   -7.3915    0.0000 C   0  0
   10.4971   -7.0088    0.0000 N   0  0
    9.1158   -6.1829    0.0000 S   0  0
    7.7206   -6.1992    0.0000 C   0  0
    9.1158   -5.3896    0.0000 C   0  0
    9.7971   -8.8847    0.0000 N   0  0
    8.3879   -5.0000    0.0000 C   0  0
    5.4247   -8.0448    0.0000 F   0  0
    6.2507   -6.6798    0.0000 F   0  0
    5.1650   -6.9575    0.0000 F   0  0
  2  1  2  0
  3  1  1  0
  4  5  1  0
  5  1  1  0
  6  4  2  0
  7  3  2  0
  8  2  1  0
  9  2  1  0
 10  3  1  0
 11  5  1  0
 12  4  1  0
 13 12  3  0
 14 11  1  0
 15 11  2  0
 16 14  1  0
 17  6  1  0
 18 15  1  0
 19 10  1  0
 20 10  1  0
 21 10  1  0
  7  9  1  0
  6  8  1  0
 16 18  2  0
M  END
> <COMPOUND_ID>
DNDI1417283

$$$$

  SciTegic04051205032D

 23 25  0  0  0  0            999 V2000
    6.4785   -7.9353    0.0000 C   0  0
    7.9214   -7.9155    0.0000 C   0  0
    7.1920   -7.5112    0.0000 C   0  0
    5.7492   -7.5112    0.0000 C   0  0
    8.6508   -7.4933    0.0000 C   0  0
    5.7333   -6.6787    0.0000 C   0  0
    9.3801   -7.8996    0.0000 C   0  0
    7.2079   -9.1760    0.0000 O   0  0
    7.1920   -6.8749    0.0000 O   0  0
    6.4468   -6.2546    0.0000 C   0  0
   10.0936   -7.4775    0.0000 C   0  0
    7.9214   -8.7499    0.0000 C   0  0
    6.4944   -8.7657    0.0000 C   0  0
    7.2495   -6.3319    0.0000 F   0  0
   10.0778   -6.6272    0.0000 F   0  0
    9.3960   -8.7321    0.0000 C   0  0
    5.0198   -6.2546    0.0000 C   0  0
   10.8230   -7.8838    0.0000 C   0  0
    6.4468   -5.4242    0.0000 C   0  0
    5.0000   -5.4242    0.0000 C   0  0
   10.1095   -9.1403    0.0000 C   0  0
    5.7333   -5.0000    0.0000 C   0  0
   10.8408   -8.7162    0.0000 C   0  0
  2  3  1  0
  3  1  1  0
  4  1  2  0
  5  2  2  0
  6  4  1  0
  7  5  1  0
  8 13  1  0
  9  3  2  0
 10  6  1  0
 11  7  2  0
 12  8  1  0
 13  1  1  0
 14 10  1  0
 15 11  1  0
 16  7  1  0
 17  6  2  0
 18 11  1  0
 19 10  2  0
 20 17  1  0
 21 16  2  0
 22 20  2  0
 23 21  1  0
 12  2  1  0
 22 19  1  0
 23 18  2  0
M  END
> <COMPOUND_ID>
DNDI1417284

$$$$

  SciTegic04051205032D

 22 24  0  0  0  0            999 V2000
    9.1096   -7.5341    0.0000 C   0  0
    9.9176   -7.4459    0.0000 N   0  0
    8.6983   -8.2649    0.0000 N   0  0
    8.7754   -6.7885    0.0000 S   0  0
    6.2304   -9.7302    0.0000 C   0  0
    7.8683   -8.2759    0.0000 N   0  0
    6.6380  -10.4758    0.0000 C   0  0
   10.0901   -6.6379    0.0000 C   0  0
    9.3704   -6.2266    0.0000 C   0  0
    6.6380   -9.0104    0.0000 C   0  0
    7.4606   -8.9957    0.0000 N   0  0
    6.2193  -11.1809    0.0000 O   0  0
    7.4717  -10.5014    0.0000 O   0  0
    5.4114   -9.7412    0.0000 C   0  0
   10.7990   -6.2156    0.0000 C   0  0
    9.3594   -5.4113    0.0000 C   0  0
    6.2193   -8.3053    0.0000 C   0  0
    7.8683  -11.2360    0.0000 C   0  0
    5.0000   -9.0251    0.0000 C   0  0
   10.7880   -5.3856    0.0000 C   0  0
   10.0791   -5.0000    0.0000 C   0  0
    5.3856   -8.3163    0.0000 C   0  0
  2  1  2  0
  3  1  1  0
  4  1  1  0
  5 10  2  0
  6  3  2  0
  7  5  1  0
  8  2  1  0
  9  4  1  0
 10 11  1  0
 11  6  1  0
 12  7  2  0
 13  7  1  0
 14  5  1  0
 15  8  1  0
 16  9  1  0
 17 10  1  0
 18 13  1  0
 19 22  1  0
 20 15  2  0
 21 16  2  0
 22 17  2  0
  9  8  2  0
 21 20  1  0
 19 14  2  0
M  END
> <COMPOUND_ID>
DNDI1417285

$$$$

  SciTegic04051205032D

 23 24  0  0  0  0            999 V2000
    9.4127  -10.3750    0.0000 C   0  0
    7.3081   -6.6621    0.0000 C   0  0
   10.1207   -9.9594    0.0000 C   0  0
    8.7009   -9.9594    0.0000 C   0  0
    8.7009   -9.1360    0.0000 C   0  0
    8.0160   -7.9010    0.0000 N   0  0
   10.8440  -10.3981    0.0000 N   0  0
    7.3081   -7.4854    0.0000 N   0  0
    8.0160   -6.2619    0.0000 O   0  0
    5.1650   -5.4078    0.0000 N   0  0
   10.1361   -9.1360    0.0000 C   0  0
    9.4127   -8.7205    0.0000 C   0  0
    6.5810   -6.2388    0.0000 C   0  0
    8.0007   -8.7205    0.0000 C   0  0
    7.9853  -10.3981    0.0000 O   0  0
   10.8440  -11.2137    0.0000 C   0  0
    5.8884   -5.0000    0.0000 C   0  0
    5.1650   -6.2235    0.0000 C   0  0
   11.5558   -9.9749    0.0000 C   0  0
    5.8691   -6.6467    0.0000 C   0  0
    6.5963   -5.4078    0.0000 C   0  0
   11.5558  -11.6370    0.0000 C   0  0
   11.5558   -9.1515    0.0000 C   0  0
  2  8  1  0
  3  1  2  0
  4  1  1  0
  5  4  2  0
  6 14  2  0
  7  3  1  0
  8  6  1  0
  9  2  2  0
 10 18  1  0
 11  3  1  0
 12  5  1  0
 13  2  1  0
 14  5  1  0
 15  4  1  0
 16  7  1  0
 17 21  1  0
 18 20  2  0
 19  7  1  0
 20 13  1  0
 21 13  2  0
 22 16  1  0
 23 19  1  0
 12 11  2  0
 10 17  2  0
M  END
> <COMPOUND_ID>
DNDI1417286

$$$$

  SciTegic04051205032D

 23 24  0  0  0  0            999 V2000
    8.5457   -6.0307    0.0000 C   0  0
    7.8036   -9.6954    0.0000 C   0  0
    7.1714   -9.1457    0.0000 C   0  0
    8.5823   -9.4206    0.0000 C   0  0
    8.7381   -8.6006    0.0000 C   0  0
    9.6817   -7.5287    0.0000 N   0  0
    7.7761   -5.8887    0.0000 C   0  0
    8.8159   -6.7819    0.0000 N   0  0
    7.2630   -6.4842    0.0000 N   0  0
    6.3972   -9.4068    0.0000 N   0  0
    9.0679   -5.4398    0.0000 O   0  0
    7.3317   -8.3395    0.0000 C   0  0
    8.1196   -8.0647    0.0000 C   0  0
    9.5168   -8.3395    0.0000 C   0  0
    9.2007   -9.9703    0.0000 O   0  0
    6.4934   -6.3422    0.0000 C   0  0
    5.7787   -8.8709    0.0000 C   0  0
    6.2369  -10.2223    0.0000 C   0  0
    7.5287   -5.1374    0.0000 C   0  0
    5.0000   -9.1320    0.0000 C   0  0
    5.4626  -10.4834    0.0000 C   0  0
    6.2322   -5.5909    0.0000 C   0  0
    6.7453   -5.0000    0.0000 C   0  0
  2  4  2  0
  3 12  2  0
  4  5  1  0
  5 14  1  0
  6  8  1  0
  7  1  1  0
  8  1  1  0
  9  7  2  0
 10  3  1  0
 11  1  2  0
 12 13  1  0
 13  5  2  0
 14  6  2  0
 15  4  1  0
 16  9  1  0
 17 10  1  0
 18 10  1  0
 19  7  1  0
 20 17  1  0
 21 18  1  0
 22 23  1  0
 23 19  2  0
 22 16  2  0
  2  3  1  0
M  END
> <COMPOUND_ID>
DNDI1417287

$$$$

  SciTegic04051205032D

 22 24  0  0  0  0            999 V2000
    8.8050   -6.5448    0.0000 N   0  0
    8.2957   -7.1914    0.0000 C   0  0
    9.5775   -6.8367    0.0000 C   0  0
    7.4718   -7.1628    0.0000 C   0  0
    9.5488   -7.6606    0.0000 S   0  0
    8.7535   -7.8837    0.0000 C   0  0
    7.0255   -7.8494    0.0000 C   0  0
   10.2525   -6.3732    0.0000 N   0  0
    6.2016   -7.8322    0.0000 C   0  0
   11.0078   -6.7337    0.0000 C   0  0
    7.0770   -6.4247    0.0000 C   0  0
   11.6772   -6.2702    0.0000 C   0  0
    5.8239   -7.0941    0.0000 C   0  0
    7.4147   -8.5875    0.0000 O   0  0
    6.2531   -6.4018    0.0000 C   0  0
    5.0000   -7.0598    0.0000 O   0  0
   11.0421   -7.5576    0.0000 C   0  0
   11.6201   -5.4463    0.0000 C   0  0
   12.4153   -6.6421    0.0000 C   0  0
   12.2952   -5.0000    0.0000 C   0  0
   11.7974   -7.9181    0.0000 C   0  0
   12.4784   -7.4718    0.0000 C   0  0
  2  1  1  0
  3  1  2  0
  4  2  1  0
  5  3  1  0
  6  2  2  0
  7  4  2  0
  8  3  1  0
  9  7  1  0
 10  8  1  0
 11  4  1  0
 12 10  1  0
 13 15  1  0
 14  7  1  0
 15 11  2  0
 16 13  1  0
 17 10  2  0
 18 12  1  0
 19 12  2  0
 20 18  1  0
 21 17  1  0
 22 21  2  0
  5  6  1  0
 13  9  2  0
 22 19  1  0
M  END
> <COMPOUND_ID>
DNDI1417288

$$$$

  SciTegic04051205032D

 23 26  0  0  0  0            999 V2000
    7.8541   -7.4713    0.0000 C   0  0
    7.8541   -6.6375    0.0000 N   0  0
    7.2326   -8.0361    0.0000 C   0  0
    8.5630   -7.8920    0.0000 C   0  0
    7.5812   -8.7639    0.0000 C   0  0
    8.3810   -8.6880    0.0000 O   0  0
    7.1416   -6.2318    0.0000 C   0  0
    6.4138   -6.6375    0.0000 C   0  0
    7.1833   -9.4726    0.0000 O   0  0
    5.7088   -7.8920    0.0000 N   0  0
    8.5630   -6.2318    0.0000 C   0  0
    6.4138   -7.4713    0.0000 C   0  0
    9.2339   -8.3810    0.0000 C   0  0
    8.6842   -7.0506    0.0000 C   0  0
    7.1416   -5.3980    0.0000 C   0  0
    5.7088   -6.2318    0.0000 C   0  0
    5.0000   -7.4713    0.0000 C   0  0
    8.5630   -5.3980    0.0000 C   0  0
    5.0000   -6.6375    0.0000 C   0  0
   10.0033   -8.0626    0.0000 C   0  0
    9.4575   -6.7435    0.0000 C   0  0
    7.8541   -5.0000    0.0000 C   0  0
   10.1284   -7.2629    0.0000 C   0  0
  2  1  1  0
  3  1  2  0
  4  1  1  0
  5  3  1  0
  6  4  1  0
  7  2  1  0
  8  7  1  0
  9  5  2  0
 10 12  1  0
 11  2  1  0
 12  8  2  0
 13  4  1  0
 14  4  1  0
 15  7  1  0
 16  8  1  0
 17 10  2  0
 18 11  1  0
 19 16  2  0
 20 13  1  0
 21 14  1  0
 22 18  1  0
 23 20  1  0
  5  6  1  0
 22 15  1  0
 23 21  1  0
 17 19  1  0
M  END
> <COMPOUND_ID>
DNDI1417289

$$$$

  SciTegic04051205032D

 24 27  0  0  0  0            999 V2000
    7.8237  -10.3760    0.0000 C   0  0
    7.8237  -11.2268    0.0000 C   0  0
    7.1034   -9.9741    0.0000 C   0  0
    7.1034  -11.6286    0.0000 C   0  0
    8.5544  -11.6286    0.0000 N   0  0
    6.3988  -10.3760    0.0000 C   0  0
    8.5544   -9.9741    0.0000 C   0  0
    6.3988  -11.2268    0.0000 C   0  0
    8.5753   -9.1442    0.0000 N   0  0
    9.2590  -11.2268    0.0000 C   0  0
    9.2590  -10.3760    0.0000 C   0  0
    7.1974   -6.6390    0.0000 C   0  0
    5.6942   -9.9741    0.0000 C   0  0
    5.6942  -11.6286    0.0000 C   0  0
    7.8550   -8.7215    0.0000 C   0  0
    7.1765   -7.4688    0.0000 C   0  0
    7.9281   -6.2422    0.0000 C   0  0
    6.5032   -6.2162    0.0000 C   0  0
    7.8811   -7.8916    0.0000 C   0  0
    5.0000  -11.2268    0.0000 C   0  0
    5.0000  -10.3760    0.0000 C   0  0
    6.5241   -5.3863    0.0000 C   0  0
    7.9490   -5.4176    0.0000 C   0  0
    7.2548   -5.0000    0.0000 C   0  0
  2  1  2  0
  3  1  1  0
  4  2  1  0
  5  2  1  0
  6  3  2  0
  7  1  1  0
  8  6  1  0
  9  7  1  0
 10 11  1  0
 11  7  2  0
 12 16  1  0
 13  6  1  0
 14  8  1  0
 15  9  1  0
 16 19  1  0
 17 12  2  0
 18 12  1  0
 19 15  1  0
 20 21  1  0
 21 13  2  0
 22 18  2  0
 23 17  1  0
 24 22  1  0
 10  5  2  0
  4  8  2  0
 14 20  2  0
 24 23  2  0
M  END
> <COMPOUND_ID>
DNDI1417290

$$$$

  SciTegic04051205032D

 24 27  0  0  0  0            999 V2000
    7.2189   -8.5007    0.0000 N   0  0
    7.6892   -7.8652    0.0000 C   0  0
    7.2189   -7.1758    0.0000 C   0  0
    6.4290   -8.2601    0.0000 C   0  0
    6.4290   -7.4343    0.0000 C   0  0
    7.5169   -9.2762    0.0000 C   0  0
    8.5114   -7.7970    0.0000 C   0  0
    7.4774   -6.3788    0.0000 C   0  0
    5.7217   -8.6730    0.0000 C   0  0
    5.7217   -7.0214    0.0000 C   0  0
    7.1722   -5.0000    0.0000 N   0  0
    8.3391   -9.4163    0.0000 C   0  0
    7.0142   -9.9117    0.0000 C   0  0
    8.9818   -8.4684    0.0000 C   0  0
    8.8777   -7.0358    0.0000 C   0  0
    6.9281   -5.7756    0.0000 C   0  0
    5.0000   -8.2601    0.0000 C   0  0
    5.0000   -7.4343    0.0000 C   0  0
    7.3051  -10.6729    0.0000 C   0  0
    9.8040   -8.4145    0.0000 C   0  0
    9.7034   -6.9820    0.0000 C   0  0
    8.6371  -10.1703    0.0000 C   0  0
    8.1344  -10.8273    0.0000 C   0  0
   10.1702   -7.6713    0.0000 C   0  0
  2  1  1  0
  3  2  2  0
  4  1  1  0
  5  4  2  0
  6  1  1  0
  7  2  1  0
  8  3  1  0
  9  4  1  0
 10  5  1  0
 11 16  1  0
 12  6  1  0
 13  6  2  0
 14  7  2  0
 15  7  1  0
 16  8  1  0
 17  9  2  0
 18 17  1  0
 19 13  1  0
 20 14  1  0
 21 15  2  0
 22 12  2  0
 23 19  2  0
 24 21  1  0
  3  5  1  0
 22 23  1  0
 10 18  2  0
 24 20  2  0
M  END
> <COMPOUND_ID>
DNDI1417291

$$$$

  SciTegic04051205032D

 20 21  0  0  0  0            999 V2000
    9.2745   -7.4576    0.0000 N   0  0
    9.2745   -8.2949    0.0000 C   0  0
    9.9820   -8.7010    0.0000 S   0  0
    9.9820   -7.0431    0.0000 C   0  0
   10.6979   -7.4576    0.0000 N   0  0
   10.6979   -8.2949    0.0000 C   0  0
    8.5502   -7.0557    0.0000 C   0  0
    8.5502   -8.7093    0.0000 S   0  0
    7.8343   -7.4701    0.0000 C   0  0
    6.4192   -8.2991    0.0000 C   0  0
   11.4138   -7.0557    0.0000 C   0  0
    7.8469   -8.2949    0.0000 C   0  0
    7.1226   -7.0557    0.0000 C   0  0
    6.4192   -7.4785    0.0000 C   0  0
    7.1436   -8.7093    0.0000 C   0  0
    5.7159   -8.7261    0.0000 O   0  0
   10.7105   -5.8164    0.0000 O   0  0
   11.4222   -6.2309    0.0000 C   0  0
    5.0000   -8.3116    0.0000 C   0  0
   10.7188   -5.0000    0.0000 C   0  0
  2  1  1  0
  3  2  1  0
  4  1  1  0
  5  4  1  0
  6  5  1  0
  7  1  1  0
  8  2  2  0
  9  7  1  0
 10 14  2  0
 11  5  1  0
 12  9  1  0
 13  9  2  0
 14 13  1  0
 15 12  2  0
 16 10  1  0
 17 18  1  0
 18 11  1  0
 19 16  1  0
 20 17  1  0
  6  3  1  0
 15 10  1  0
M  END
> <COMPOUND_ID>
DNDI1417292

$$$$

  SciTegic04051205032D

 20 21  0  0  0  0            999 V2000
    6.6692   -7.1461    0.0000 C   0  0
    9.1424   -8.5769    0.0000 C   0  0
   10.3857   -9.2956    0.0000 C   0  0
    9.9634   -8.5769    0.0000 C   0  0
    6.2434   -6.4341    0.0000 C   0  0
    9.9634  -10.0110    0.0000 C   0  0
    6.2434   -7.8615    0.0000 N   0  0
    7.9058   -7.8615    0.0000 N   0  0
    5.4259   -6.4341    0.0000 N   0  0
    7.4868   -7.1461    0.0000 N   0  0
    8.7234   -9.2956    0.0000 C   0  0
    9.1424  -10.0110    0.0000 C   0  0
    8.7234   -7.8615    0.0000 C   0  0
   11.1965   -9.2956    0.0000 Cl  0  0
   10.3653   -7.8615    0.0000 O   0  0
    8.7438  -10.7230    0.0000 Cl  0  0
    6.6692   -5.7154    0.0000 O   0  0
    5.4259   -7.8615    0.0000 C   0  0
    5.0000   -7.1461    0.0000 C   0  0
    6.2639   -5.0000    0.0000 C   0  0
  2 13  1  0
  3  4  2  0
  4  2  1  0
  5  1  2  0
  6 12  2  0
  7  1  1  0
  8 10  1  0
  9  5  1  0
 10  1  1  0
 11  2  2  0
 12 11  1  0
 13  8  2  0
 14  3  1  0
 15  4  1  0
 16 12  1  0
 17  5  1  0
 18  7  2  0
 19 18  1  0
 20 17  1  0
 19  9  2  0
  6  3  1  0
M  END
> <COMPOUND_ID>
DNDI1417293

$$$$

  SciTegic04051205032D

 19 20  0  0  0  0            999 V2000
    7.4026   -6.4458    0.0000 C   0  0
    8.0994   -6.8453    0.0000 C   0  0
    6.7147   -6.8453    0.0000 S   0  0
    8.0994   -7.6485    0.0000 N   0  0
    6.0179   -6.4458    0.0000 C   0  0
    8.7739   -8.8201    0.0000 C   0  0
    7.4026   -5.6470    0.0000 C   0  0
    8.7829   -8.0346    0.0000 N   0  0
    6.0179   -5.6470    0.0000 C   0  0
    8.7872   -6.4458    0.0000 C   0  0
    8.0994   -9.2063    0.0000 N   0  0
    8.7829   -5.6470    0.0000 C   0  0
    9.4841   -6.8453    0.0000 C   0  0
    9.4530   -9.2152    0.0000 N   0  0
    5.3300   -6.8408    0.0000 Cl  0  0
   10.1676   -5.6470    0.0000 C   0  0
    9.4663   -5.2475    0.0000 C   0  0
   10.1676   -6.4458    0.0000 C   0  0
   10.8599   -5.2475    0.0000 Cl  0  0
  2  1  1  0
  3  1  1  0
  4  2  2  0
  5  3  1  0
  6  8  1  0
  7  1  2  0
  8  4  1  0
  9  7  1  0
 10  2  1  0
 11  6  2  0
 12 10  1  0
 13 10  2  0
 14  6  1  0
 15  5  1  0
 16 17  1  0
 17 12  2  0
 18 13  1  0
 19 16  1  0
  9  5  2  0
 16 18  2  0
M  END
> <COMPOUND_ID>
DNDI1417294

$$$$

  SciTegic04051205032D

 23 25  0  0  0  0            999 V2000
    7.2824   -6.6790    0.0000 C   0  0
    6.5725   -6.2655    0.0000 N   0  0
    8.7651   -6.6414    0.0000 N   0  0
   10.8951   -6.2279    0.0000 C   0  0
    8.0635   -6.2362    0.0000 O   0  0
    9.4793   -6.2279    0.0000 C   0  0
   11.6050   -6.6372    0.0000 C   0  0
   10.1892   -6.6372    0.0000 C   0  0
    7.2699   -7.5811    0.0000 O   0  0
    5.1650   -5.4343    0.0000 O   0  0
   12.3109   -6.2237    0.0000 C   0  0
    9.4793   -5.4135    0.0000 N   0  0
    6.5850   -5.4386    0.0000 C   0  0
    5.8666   -6.6664    0.0000 C   0  0
   10.8951   -5.4093    0.0000 C   0  0
   11.5967   -5.0000    0.0000 C   0  0
   11.6092   -7.4558    0.0000 C   0  0
    5.1567   -6.2530    0.0000 C   0  0
    5.8708   -5.0251    0.0000 C   0  0
   12.3109   -5.4010    0.0000 C   0  0
   13.0208   -6.6288    0.0000 C   0  0
   12.3109   -7.8567    0.0000 C   0  0
   13.0250   -7.4516    0.0000 C   0  0
  2  1  1  0
  3  5  1  0
  4  8  1  0
  5  1  1  0
  6  3  2  0
  7  4  1  0
  8  6  1  0
  9  1  2  0
 10 18  1  0
 11  7  1  0
 12  6  1  0
 13  2  1  0
 14  2  1  0
 15  4  2  0
 16 15  1  0
 17  7  2  0
 18 14  1  0
 19 13  1  0
 20 16  2  0
 21 11  2  0
 22 17  1  0
 23 22  2  0
 19 10  1  0
 11 20  1  0
 23 21  1  0
M  END
> <COMPOUND_ID>
DNDI1417295

$$$$

  SciTegic04051205032D

 23 24  0  0  0  0            999 V2000
   12.0958   -6.5400    0.0000 C   0  0
   12.0740   -5.7278    0.0000 C   0  0
   12.8382   -6.9549    0.0000 C   0  0
    9.2284   -6.5313    0.0000 C   0  0
   12.7683   -5.2824    0.0000 C   0  0
   10.6679   -6.5313    0.0000 N   0  0
   13.5543   -6.5095    0.0000 C   0  0
   13.5106   -5.6754    0.0000 C   0  0
    9.9431   -6.9418    0.0000 N   0  0
   11.3768   -6.9418    0.0000 C   0  0
    9.2488   -5.6842    0.0000 O   0  0
    7.8165   -6.5095    0.0000 N   0  0
    8.5370   -6.9418    0.0000 C   0  0
    7.0742   -6.9418    0.0000 C   0  0
   11.3622   -5.3567    0.0000 O   0  0
    5.6856   -7.7671    0.0000 C   0  0
   14.2049   -5.2475    0.0000 O   0  0
    7.0742   -7.7452    0.0000 C   0  0
    6.3580   -6.5095    0.0000 C   0  0
    6.3580   -8.1601    0.0000 C   0  0
    5.6637   -6.9418    0.0000 C   0  0
   12.8600   -7.7671    0.0000 C   0  0
    5.0000   -8.2212    0.0000 C   0  0
  2  1  1  0
  3  1  2  0
  4  9  1  0
  5  2  2  0
  6 10  2  0
  7  3  1  0
  8  7  2  0
  9  6  1  0
 10  1  1  0
 11  4  2  0
 12 13  1  0
 13  4  1  0
 14 12  1  0
 15  2  1  0
 16 21  2  0
 17  8  1  0
 18 14  1  0
 19 14  2  0
 20 18  2  0
 21 19  1  0
 22  3  1  0
 23 16  1  0
  5  8  1  0
 20 16  1  0
M  END
> <COMPOUND_ID>
DNDI1417296

$$$$

  SciTegic04051205032D

 23 25  0  0  0  0            999 V2000
   11.4476   -7.5426    0.0000 C   0  0
   11.1138   -6.7926    0.0000 N   0  0
   12.2698   -7.4600    0.0000 N   0  0
   12.4384   -6.6481    0.0000 C   0  0
   11.7262   -6.2352    0.0000 C   0  0
   11.0347   -8.2514    0.0000 N   0  0
   10.3018   -6.6171    0.0000 C   0  0
   12.8204   -8.0656    0.0000 C   0  0
    5.9667   -7.1641    0.0000 C   0  0
    7.5872   -7.5048    0.0000 C   0  0
    5.1650   -6.9852    0.0000 F   0  0
   11.7262   -5.4129    0.0000 C   0  0
   13.1575   -6.2352    0.0000 C   0  0
    6.2248   -7.9383    0.0000 C   0  0
    6.5275   -6.5414    0.0000 C   0  0
    7.0332   -8.1069    0.0000 C   0  0
    7.3292   -6.7203    0.0000 C   0  0
    9.7548   -7.2329    0.0000 C   0  0
    8.3957   -7.6768    0.0000 O   0  0
    8.9428   -7.0609    0.0000 C   0  0
   13.6323   -7.8901    0.0000 C   0  0
   12.4384   -5.0000    0.0000 C   0  0
   13.1575   -5.4129    0.0000 C   0  0
  2  1  1  0
  3  1  1  0
  4  3  1  0
  5  2  1  0
  6  1  2  0
  7  2  1  0
  8  3  1  0
  9 15  2  0
 10 19  1  0
 11  9  1  0
 12  5  1  0
 13  4  1  0
 14 16  2  0
 15 17  1  0
 16 10  1  0
 17 10  2  0
 18  7  1  0
 19 20  1  0
 20 18  1  0
 21  8  1  0
 22 12  2  0
 23 13  2  0
  4  5  2  0
 23 22  1  0
 14  9  1  0
M  END
> <COMPOUND_ID>
DNDI1417297

$$$$

  SciTegic04051205032D

 22 24  0  0  0  0            999 V2000
    6.4367   -7.2271    0.0000 N   0  0
    7.0966   -6.7425    0.0000 C   0  0
    6.0242   -5.9589    0.0000 N   0  0
    5.7630   -6.7425    0.0000 N   0  0
    6.8491   -5.9589    0.0000 N   0  0
    6.4367   -8.0554    0.0000 C   0  0
    9.2858   -6.7081    0.0000 C   0  0
    9.9011   -6.1548    0.0000 C   0  0
    8.5022   -6.4504    0.0000 N   0  0
    5.7149   -8.4678    0.0000 C   0  0
    9.8220   -5.3333    0.0000 S   0  0
    7.8870   -7.0003    0.0000 C   0  0
    5.7149   -9.2927    0.0000 C   0  0
   10.7087   -6.3198    0.0000 C   0  0
   10.5713   -5.0000    0.0000 C   0  0
    7.1481   -8.4747    0.0000 C   0  0
    6.4332   -9.7120    0.0000 C   0  0
    9.4577   -7.5124    0.0000 O   0  0
   11.1211   -5.6255    0.0000 C   0  0
    7.1481   -9.2996    0.0000 C   0  0
    5.0000   -9.6948    0.0000 C   0  0
    6.4229  -10.5369    0.0000 C   0  0
  2  1  1  0
  3  4  2  0
  4  1  1  0
  5  2  2  0
  6  1  1  0
  7  9  1  0
  8  7  1  0
  9 12  1  0
 10  6  2  0
 11  8  1  0
 12  2  1  0
 13 10  1  0
 14  8  2  0
 15 11  1  0
 16  6  1  0
 17 20  1  0
 18  7  2  0
 19 14  1  0
 20 16  2  0
 21 13  1  0
 22 17  1  0
  5  3  1  0
 13 17  2  0
 19 15  2  0
M  END
> <COMPOUND_ID>
DNDI1417298

$$$$

  SciTegic04051205032D

 24 27  0  0  0  0            999 V2000
    9.3281   -8.1367    0.0000 N   0  3
    9.5738   -7.3577    0.0000 C   0  0
    7.2244  -11.4066    0.0000 N   0  0
    7.2161  -10.0612    0.0000 C   0  0
    7.7035  -10.7318    0.0000 C   0  0
    8.5241   -8.3116    0.0000 C   0  0
    7.4661   -9.2739    0.0000 C   0  0
    9.0157   -6.7453    0.0000 C   0  0
    8.2742   -9.0989    0.0000 C   0  0
    6.4288  -10.3236    0.0000 C   0  0
    6.4288  -11.1484    0.0000 C   0  0
   10.3778   -7.1827    0.0000 C   0  0
    9.2739   -5.9622    0.0000 C   0  0
    8.2117   -6.9245    0.0000 C   0  0
    7.9659   -7.7076    0.0000 C   0  0
    9.8779   -8.7490    0.0000 C   0  0
   10.6277   -6.3996    0.0000 C   0  0
   10.0737   -5.7873    0.0000 C   0  0
    5.7123   -9.9112    0.0000 C   0  0
    5.7123  -11.5608    0.0000 C   0  0
   10.3236   -5.0000    0.0000 C   0  0
    9.6280   -9.5363    0.0000 C   0  0
    5.0000  -10.3236    0.0000 C   0  0
    5.0000  -11.1484    0.0000 C   0  0
  2  1  1  0
  3  5  1  0
  4  7  1  0
  5  4  2  0
  6  1  2  0
  7  9  2  0
  8  2  1  0
  9  6  1  0
 10  4  1  0
 11 10  1  0
 12  2  2  0
 13  8  2  0
 14 15  2  0
 15  6  1  0
 16  1  1  0
 17 12  1  0
 18 17  2  0
 19 10  2  0
 20 11  2  0
 21 18  1  0
 22 16  1  0
 23 19  1  0
 24 23  2  0
  8 14  1  0
 18 13  1  0
 11  3  1  0
 20 24  1  0
M  CHG  1   1   1
M  END
> <COMPOUND_ID>
DNDI1417299

$$$$

  SciTegic04051205032D

 22 23  0  0  0  0            999 V2000
    7.8688   -7.4124    0.0000 C   0  0
    7.1550   -7.8242    0.0000 N   0  0
    7.8688   -6.5888    0.0000 C   0  0
    6.4378   -7.4124    0.0000 C   0  0
    6.4378   -6.5888    0.0000 N   0  0
    7.1550   -6.1873    0.0000 C   0  0
    8.5998   -7.8242    0.0000 N   0  0
   11.4480   -6.1496    0.0000 C   0  0
   10.7343   -6.5785    0.0000 C   0  0
    5.7206   -7.8448    0.0000 S   0  0
   11.4412   -5.3363    0.0000 O   0  0
    9.2861   -7.4124    0.0000 C   0  0
    8.6032   -5.3946    0.0000 C   0  0
   10.7343   -7.4124    0.0000 C   0  0
    9.9999   -6.1873    0.0000 C   0  0
    9.3582   -5.0000    0.0000 C   0  0
    8.6032   -6.1908    0.0000 C   0  0
   10.0240   -7.8242    0.0000 C   0  0
    9.2861   -6.5888    0.0000 C   0  0
    7.1550   -5.3603    0.0000 C   0  0
   12.1550   -6.5305    0.0000 C   0  0
    5.0000   -7.4433    0.0000 C   0  0
  2  1  1  0
  3  1  2  0
  4  2  2  0
  5  4  1  0
  6  3  1  0
  7  1  1  0
  8  9  1  0
  9 14  2  0
 10  4  1  0
 11  8  2  0
 12  7  1  0
 13 17  1  0
 14 18  1  0
 15 19  2  0
 16 13  2  0
 17  3  1  0
 18 12  2  0
 19 12  1  0
 20  6  1  0
 21  8  1  0
 22 10  1  0
  5  6  2  0
  9 15  1  0
M  END
> <COMPOUND_ID>
DNDI1417300

$$$$

  SciTegic04051205032D

 22 24  0  0  0  0            999 V2000
    7.2303   -5.0112    0.0000 S   0  0
    7.6613   -6.7994    0.0000 C   0  0
    6.8469   -6.7994    0.0000 O   0  0
    7.9579   -6.2621    0.0000 C   0  0
    7.9579   -5.4170    0.0000 C   0  0
    6.4803   -5.4170    0.0000 C   0  0
    6.4803   -6.2621    0.0000 C   0  0
   10.0818   -7.8376    0.0000 N   0  0
    8.4868   -7.1548    0.0000 C   0  0
    7.3842   -7.4066    0.0000 C   0  0
    8.6911   -6.6790    0.0000 C   0  0
    8.6911   -5.0000    0.0000 C   0  0
    8.4868   -8.0055    0.0000 C   0  0
    5.7388   -5.0000    0.0000 C   0  0
    5.7388   -6.6790    0.0000 C   0  0
    9.4438   -8.3637    0.0000 C   0  0
   10.8347   -8.1342    0.0000 C   0  0
    9.9419   -7.0512    0.0000 C   0  0
    9.4298   -6.2621    0.0000 C   0  0
    9.4298   -5.4170    0.0000 C   0  0
    5.0000   -6.2621    0.0000 C   0  0
    5.0000   -5.4170    0.0000 C   0  0
  2  4  1  0
  3  7  1  0
  4  5  2  0
  5  1  1  0
  6  1  1  0
  7  6  1  0
  8 16  1  0
  9  2  1  0
 10  2  1  0
 11  4  1  0
 12  5  1  0
 13  9  1  0
 14  6  2  0
 15  7  2  0
 16 13  1  0
 17  8  1  0
 18  8  1  0
 19 20  1  0
 20 12  2  0
 21 15  1  0
 22 14  1  0
  3  2  1  0
 22 21  2  0
 19 11  2  0
M  END
> <COMPOUND_ID>
DNDI1417301

$$$$

  SciTegic04051205032D

 20 21  0  0  0  0            999 V2000
    7.4839   -7.1643    0.0000 C   0  0
    8.7227   -7.8836    0.0000 C   0  0
    7.8940   -7.8836    0.0000 N   0  0
    9.1350   -8.5881    0.0000 C   0  0
    9.9510   -7.1643    0.0000 C   0  0
    9.1350   -7.1643    0.0000 C   0  0
    9.9510   -8.5881    0.0000 C   0  0
   10.3591   -7.8836    0.0000 C   0  0
    6.6553   -7.1643    0.0000 C   0  0
    7.8940   -6.4639    0.0000 O   0  0
    6.2472   -6.4407    0.0000 C   0  0
    8.7101   -6.4639    0.0000 Cl  0  0
   10.3759   -9.3348    0.0000 F   0  0
   11.1961   -7.8836    0.0000 F   0  0
    5.4269   -6.4407    0.0000 C   0  0
    5.0000   -5.7214    0.0000 S   0  0
    6.2472   -7.8625    0.0000 C   0  0
    5.4269   -7.8625    0.0000 C   0  0
    5.0189   -7.1643    0.0000 C   0  0
    5.4269   -5.0000    0.0000 C   0  0
  2  3  1  0
  3  1  1  0
  4  2  2  0
  5  6  2  0
  6  2  1  0
  7  4  1  0
  8  7  2  0
  9  1  1  0
 10  1  2  0
 11  9  1  0
 12  6  1  0
 13  7  1  0
 14  8  1  0
 15 11  2  0
 16 15  1  0
 17  9  2  0
 18 17  1  0
 19 18  2  0
 20 16  1  0
 19 15  1  0
  8  5  1  0
M  END
> <COMPOUND_ID>
DNDI1417302

$$$$

  SciTegic04051205032D

 21 23  0  0  0  0            999 V2000
    7.1724   -7.5354    0.0000 C   0  0
    7.1724   -8.3598    0.0000 C   0  0
    6.6539   -6.8977    0.0000 C   0  0
    5.8503   -7.0376    0.0000 C   0  0
    6.4465   -8.7746    0.0000 C   0  0
    7.8723   -7.1310    0.0000 C   0  0
    8.5878   -6.7162    0.0000 N   0  0
    7.8931   -9.5885    0.0000 N   0  0
    5.3111   -6.3948    0.0000 C   0  0
    7.1724  -10.0034    0.0000 N   0  0
    6.9546   -6.1355    0.0000 C   0  0
    6.4465   -9.5885    0.0000 C   0  0
    5.6117   -5.6067    0.0000 C   0  0
    7.8931   -8.7746    0.0000 C   0  0
    5.5547   -7.7842    0.0000 Cl  0  0
    6.4310   -5.4822    0.0000 C   0  0
    5.0984   -5.0000    0.0000 Cl  0  0
    5.7206   -8.3598    0.0000 C   0  0
    5.7206  -10.0034    0.0000 C   0  0
    5.0000   -8.7746    0.0000 C   0  0
    5.0000   -9.5885    0.0000 C   0  0
  2  1  1  0
  3  1  1  0
  4  3  1  0
  5  2  1  0
  6  1  1  0
  7  6  3  0
  8 14  1  0
  9  4  2  0
 10  8  2  0
 11  3  2  0
 12  5  2  0
 13 16  2  0
 14  2  2  0
 15  4  1  0
 16 11  1  0
 17 13  1  0
 18  5  1  0
 19 12  1  0
 20 18  2  0
 21 20  1  0
 10 12  1  0
 13  9  1  0
 21 19  2  0
M  END
> <COMPOUND_ID>
DNDI1417303

$$$$

  SciTegic04051205032D

 19 21  0  0  0  0            999 V2000
    7.1616   -7.7084    0.0000 C   0  0
   10.5023   -5.8945    0.0000 N   0  3
    6.0823   -8.4914    0.0000 N   0  0
    6.5025   -7.2187    0.0000 C   0  0
    6.8623   -8.4914    0.0000 C   0  0
    7.9507   -7.4302    0.0000 C   0  0
    5.8314   -7.6994    0.0000 C   0  0
    8.1139   -6.6382    0.0000 C   0  0
    6.4481   -6.4054    0.0000 C   0  0
    9.8765   -5.3321    0.0000 C   0  0
   10.3179   -6.7017    0.0000 C   0  0
    5.0846   -7.3456    0.0000 C   0  0
    8.9120   -6.3842    0.0000 C   0  0
    5.6772   -6.0668    0.0000 C   0  0
    5.0000   -6.5294    0.0000 C   0  0
   11.3035   -5.6405    0.0000 C   0  0
    5.5834   -5.2475    0.0000 Br  0  0
    9.5258   -6.9284    0.0000 C   0  0
    9.0965   -5.5800    0.0000 C   0  0
  2 10  1  0
  3  5  1  0
  4  1  1  0
  5  1  2  0
  6  1  1  0
  7  4  1  0
  8  6  2  0
  9  4  2  0
 10 19  2  0
 11 18  1  0
 12  7  2  0
 13  8  1  0
 14  9  1  0
 15 14  2  0
 16  2  1  0
 17 14  1  0
 18 13  2  0
 19 13  1  0
  3  7  1  0
 15 12  1  0
  2 11  2  0
M  CHG  1   2   1
M  END
> <COMPOUND_ID>
DNDI1417304

$$$$

  SciTegic04051205032D

 24 26  0  0  0  0            999 V2000
    7.0610   -8.4676    0.0000 C   0  0
    6.5426   -7.8174    0.0000 N   0  0
    7.8769   -8.3274    0.0000 N   0  0
    6.8358   -7.0398    0.0000 N   0  0
    8.1616   -7.5752    0.0000 N   0  0
    6.3258   -6.4108    0.0000 C   0  0
    6.7720   -9.2453    0.0000 C   0  0
    6.6063   -5.6374    0.0000 C   0  0
    8.9987   -7.4307    0.0000 C   0  0
    5.5099   -6.5298    0.0000 C   0  0
    7.2820   -9.8954    0.0000 C   0  0
    5.9561   -9.3685    0.0000 C   0  0
    7.4477   -5.5100    0.0000 C   0  0
    6.1048   -5.0000    0.0000 C   0  0
    9.3047   -6.6318    0.0000 C   0  0
    9.5087   -8.0597    0.0000 C   0  0
    5.2889   -5.1275    0.0000 C   0  0
    6.9760  -10.6731    0.0000 C   0  0
    5.6757  -10.1461    0.0000 C   0  0
    5.0000   -5.8797    0.0000 C   0  0
   10.3246   -7.9194    0.0000 C   0  0
   10.1206   -6.5128    0.0000 C   0  0
    6.1856  -10.7963    0.0000 C   0  0
   10.6306   -7.1673    0.0000 C   0  0
  2  1  1  0
  3  1  2  0
  4  2  2  0
  5  3  1  0
  6  4  1  0
  7  1  1  0
  8  6  2  0
  9  5  1  0
 10  6  1  0
 11  7  1  0
 12  7  2  0
 13  8  1  0
 14  8  1  0
 15  9  1  0
 16  9  2  0
 17 20  1  0
 18 11  2  0
 19 12  1  0
 20 10  2  0
 21 16  1  0
 22 15  2  0
 23 19  2  0
 24 21  2  0
 23 18  1  0
 22 24  1  0
 17 14  2  0
M  END
> <COMPOUND_ID>
DNDI1417305

$$$$

  SciTegic04051205032D

 22 24  0  0  0  0            999 V2000
    8.0254   -7.5097    0.0000 S   0  0
    8.6890   -7.0250    0.0000 C   0  0
    7.3482   -7.0250    0.0000 C   0  0
    9.4762   -7.2759    0.0000 C   0  0
    8.4380   -6.2376    0.0000 C   0  0
    7.6129   -6.2376    0.0000 C   0  0
   12.8832   -6.1517    0.0000 N   0  0
    6.5712   -7.2759    0.0000 C   0  0
    9.6447   -8.0873    0.0000 O   0  0
   10.0882   -6.7259    0.0000 N   0  0
   12.2644   -6.7018    0.0000 C   0  0
   11.4840   -6.4371    0.0000 C   0  0
   13.6877   -6.3339    0.0000 C   0  0
   12.8007   -5.3335    0.0000 C   0  0
   10.8720   -6.9871    0.0000 C   0  0
    6.3993   -8.0838    0.0000 C   0  0
    5.9558   -6.7259    0.0000 C   0  0
   13.5501   -5.0000    0.0000 C   0  0
   14.1002   -5.6223    0.0000 C   0  0
    5.1720   -6.9837    0.0000 C   0  0
    5.6223   -8.3382    0.0000 C   0  0
    5.0000   -7.7882    0.0000 C   0  0
  2  1  1  0
  3  1  1  0
  4  2  1  0
  5  2  2  0
  6  3  2  0
  7 11  1  0
  8  3  1  0
  9  4  2  0
 10  4  1  0
 11 12  1  0
 12 15  1  0
 13  7  1  0
 14  7  1  0
 15 10  1  0
 16  8  1  0
 17  8  2  0
 18 14  1  0
 19 13  1  0
 20 17  1  0
 21 16  2  0
 22 20  2  0
  6  5  1  0
 21 22  1  0
 18 19  1  0
M  END
> <COMPOUND_ID>
DNDI1417306

$$$$

  SciTegic04051205032D

 22 23  0  0  0  0            999 V2000
    7.1681   -7.9131    0.0000 C   0  0
    7.1806   -8.7418    0.0000 C   0  0
    7.8629   -7.4861    0.0000 C   0  0
    7.8712   -9.1562    0.0000 N   0  0
    6.4649   -9.1562    0.0000 C   0  0
    7.8629   -6.6616    0.0000 N   0  0
    8.5661   -7.9005    0.0000 C   0  0
    6.4440   -7.4861    0.0000 C   0  0
    8.5744   -8.7335    0.0000 C   0  0
    5.7743   -8.7418    0.0000 C   0  0
    5.7283   -7.9131    0.0000 C   0  0
    8.5786   -6.2473    0.0000 C   0  0
   10.0058   -5.4143    0.0000 C   0  0
    9.6459   -7.9884    0.0000 Cl  0  0
    9.2943   -6.6574    0.0000 C   0  0
    8.5786   -5.4185    0.0000 C   0  0
   10.0101   -6.2473    0.0000 C   0  0
    9.2901   -5.0042    0.0000 C   0  0
   10.7216   -5.0000    0.0000 O   0  0
    6.4566   -9.9849    0.0000 C   0  0
    9.2776   -9.1562    0.0000 C   0  0
    5.0000   -7.5113    0.0000 C   0  0
  2  1  1  0
  3  1  1  0
  4  2  1  0
  5  2  2  0
  6  3  1  0
  7  3  2  0
  8  1  2  0
  9  7  1  0
 10 11  2  0
 11  8  1  0
 12  6  1  0
 13 17  1  0
 15 12  1  0
 16 12  2  0
 17 15  2  0
 18 16  1  0
 19 13  1  0
 20  5  1  0
 21  9  1  0
 22 11  1  0
  5 10  1  0
  4  9  2  0
 18 13  2  0
M  END
> <COMPOUND_ID>
DNDI1417307

$$$$

  SciTegic04051205032D

 22 23  0  0  0  0            999 V2000
    7.1686   -8.7302    0.0000 C   0  0
    7.1812   -9.5591    0.0000 C   0  0
    7.8636   -8.3031    0.0000 C   0  0
    7.8719   -9.9736    0.0000 N   0  0
    6.4653   -9.9736    0.0000 C   0  0
    7.8636   -7.4868    0.0000 N   0  0
    8.5669   -8.7176    0.0000 C   0  0
    6.4444   -8.3031    0.0000 C   0  0
    8.5753   -9.5591    0.0000 C   0  0
    5.7745   -9.5591    0.0000 C   0  0
    8.5795   -7.0681    0.0000 C   0  0
    5.7285   -8.7302    0.0000 C   0  0
    8.5795   -6.2434    0.0000 C   0  0
    9.2912   -5.8289    0.0000 C   0  0
    9.6471   -8.8055    0.0000 Cl  0  0
    9.2828   -5.0000    0.0000 O   0  0
    6.4569  -10.8025    0.0000 C   0  0
   10.0113   -7.0681    0.0000 C   0  0
    9.2954   -7.4825    0.0000 C   0  0
    9.2786   -9.9736    0.0000 C   0  0
    5.0000   -8.3283    0.0000 C   0  0
   10.0071   -6.2308    0.0000 C   0  0
  2  1  1  0
  3  1  1  0
  4  2  1  0
  5  2  2  0
  6  3  1  0
  7  3  2  0
  8  1  2  0
  9  7  1  0
 10 12  2  0
 11  6  1  0
 12  8  1  0
 13 11  2  0
 14 13  1  0
 16 14  1  0
 17  5  1  0
 18 19  2  0
 19 11  1  0
 20  9  1  0
 21 12  1  0
 22 18  1  0
  5 10  1  0
  4  9  2  0
 22 14  2  0
M  END
> <COMPOUND_ID>
DNDI1417308

$$$$

  SciTegic04051205032D

 20 23  0  0  0  0            999 V2000
    7.8300   -6.3547    0.0000 C   0  0
    7.4435   -7.0653    0.0000 N   0  0
    7.4185   -5.6566    0.0000 N   0  0
    8.4782   -6.3714    0.0000 C   0  0
    6.6207   -7.0695    0.0000 C   0  0
    6.6040   -5.6732    0.0000 C   0  0
    9.1888   -6.7828    0.0000 O   0  0
    6.2176   -6.3714    0.0000 C   0  0
    9.8870   -6.3714    0.0000 C   0  0
    8.4907   -5.5693    0.0000 C   0  0
    9.8870   -5.5693    0.0000 C   0  0
    5.4197   -6.3838    0.0000 C   0  0
   10.5851   -6.7828    0.0000 Br  0  0
    6.1968   -5.0000    0.0000 C   0  0
    6.2342   -7.7676    0.0000 C   0  0
    5.4239   -7.7801    0.0000 C   0  0
    5.3865   -5.0083    0.0000 C   0  0
    5.0000   -5.6982    0.0000 C   0  0
    5.0207   -7.0820    0.0000 C   0  0
    8.2289   -7.0653    0.0000 H   0  0
  2  1  1  0
  3  1  1  0
  4  1  1  0
  5  2  1  0
  6  3  1  0
  7  4  1  0
  8  6  1  0
  9  7  1  0
 10  4  2  0
 11 10  1  0
 12  8  2  0
 13  9  1  0
 14  6  2  0
 15  5  2  0
 16 15  1  0
 17 14  1  0
 18 17  2  0
 19 12  1  0
 11  9  2  0
  8  5  1  0
 12 18  1  0
 16 19  2  0
 20  1  1  0
M  END
> <COMPOUND_ID>
DNDI1417309

$$$$

  SciTegic04051205032D

 22 23  0  0  0  0            999 V2000
    8.4815   -6.4966    0.0000 N   0  0
    9.1038   -6.1319    0.0000 C   0  0
    8.4815   -7.3093    0.0000 C   0  0
    7.8538   -6.1319    0.0000 N   0  0
    9.8199   -6.5530    0.0000 C   0  0
    9.1038   -5.4077    0.0000 C   0  0
    7.8538   -5.4077    0.0000 C   0  0
    7.7573   -7.7117    0.0000 C   0  0
    9.1815   -7.7197    0.0000 O   0  0
    9.7770   -5.7376    0.0000 O   0  0
    7.0358   -7.3040    0.0000 N   0  0
    9.4068   -7.2691    0.0000 F   0  0
   10.5333   -6.9607    0.0000 F   0  0
   10.2437   -5.8234    0.0000 F   0  0
    7.1457   -5.0000    0.0000 C   0  0
    6.3277   -7.7117    0.0000 C   0  0
    7.7573   -8.5378    0.0000 C   0  0
    6.4242   -5.4264    0.0000 C   0  0
    5.6893   -5.0000    0.0000 C   0  0
    6.3277   -8.5378    0.0000 C   0  0
    5.0000   -5.4533    0.0000 C   0  0
    7.0358   -8.9455    0.0000 C   0  0
  2  1  1  0
  3  1  1  0
  4  1  1  0
  5  2  1  0
  6  2  1  0
  7  4  2  0
  8  3  1  0
  9  3  2  0
 10  2  1  0
 11  8  1  0
 12  5  1  0
 13  5  1  0
 14  5  1  0
 15  7  1  0
 16 11  2  0
 17  8  2  0
 18 15  1  0
 19 18  1  0
 20 16  1  0
 21 19  1  0
 22 17  1  0
  7  6  1  0
 20 22  2  0
M  END
> <COMPOUND_ID>
DNDI1417310

$$$$

  SciTegic04051205032D

 24 27  0  0  0  0            999 V2000
    7.1380   -6.6434    0.0000 N   0  0
    8.5686   -7.4698    0.0000 N   0  0
    9.2823   -8.7095    0.0000 C   0  0
    6.4243   -6.2396    0.0000 C   0  0
    9.2823   -7.8830    0.0000 C   0  0
    8.5686   -6.6434    0.0000 N   0  0
    9.9929   -9.1227    0.0000 C   0  0
    7.8517   -6.2396    0.0000 C   0  0
    5.7137   -6.6434    0.0000 C   0  0
    9.9929   -7.4698    0.0000 C   0  0
    6.4243   -5.4038    0.0000 C   0  0
   10.7098   -8.7095    0.0000 C   0  0
   10.7098   -7.8830    0.0000 C   0  0
    7.1380   -5.0000    0.0000 C   0  0
    8.5498   -9.1101    0.0000 O   0  0
    7.8517   -5.4038    0.0000 C   0  0
    5.7137   -7.4604    0.0000 O   0  0
    9.9961   -9.9491    0.0000 C   0  0
    5.0000   -5.4038    0.0000 C   0  0
    5.0000   -6.2396    0.0000 C   0  0
    5.7137   -5.0000    0.0000 C   0  0
   11.4235   -9.1227    0.0000 C   0  0
   10.7192  -10.3623    0.0000 C   0  0
   11.4329   -9.9491    0.0000 C   0  0
  2  6  2  0
  3  5  1  0
  4  1  1  0
  5  2  1  0
  6  8  1  0
  7  3  2  0
  8  1  2  0
  9  4  1  0
 10  5  2  0
 11  4  2  0
 12 13  2  0
 13 10  1  0
 14 16  2  0
 15  3  1  0
 16  8  1  0
 17  9  1  0
 18  7  1  0
 19 21  2  0
 20  9  2  0
 21 11  1  0
 22 12  1  0
 23 18  2  0
 24 22  2  0
 14 11  1  0
 20 19  1  0
  7 12  1  0
 24 23  1  0
M  END
> <COMPOUND_ID>
DNDI1417311

$$$$

  SciTegic04051205032D

 22 24  0  0  0  0            999 V2000
    7.2099  -10.1467    0.0000 C   0  0
    9.2694   -6.0448    0.0000 S   0  0
    7.7087  -10.8081    0.0000 C   0  0
    7.2208  -11.4817    0.0000 N   0  0
    7.4600   -9.3604    0.0000 C   0  0
    6.4344  -10.4089    0.0000 C   0  0
    6.4344  -11.2317    0.0000 C   0  0
    9.0194   -6.8312    0.0000 C   0  0
   10.0813   -5.8700    0.0000 O   0  0
    8.7196   -5.4331    0.0000 O   0  0
    8.2694   -9.1856    0.0000 N   0  0
    8.5315  -10.8081    0.0000 O   0  0
    9.4818   -5.2475    0.0000 N   0  0
    9.5764   -7.4416    0.0000 C   0  0
    8.2172   -7.0144    0.0000 C   0  0
    8.5206   -8.3992    0.0000 C   0  0
    9.3277   -8.2280    0.0000 C   0  0
    7.9672   -7.7911    0.0000 C   0  0
    5.7124   -9.9962    0.0000 C   0  0
    5.7124  -11.6431    0.0000 C   0  0
    5.0000  -10.4089    0.0000 C   0  0
    5.0000  -11.2317    0.0000 C   0  0
  2  8  1  0
  3  1  1  0
  4  3  1  0
  5  1  2  0
  6  1  1  0
  7  6  1  0
  8 15  1  0
  9  2  2  0
 10  2  2  0
 11  5  1  0
 12  3  2  0
 13  2  1  0
 14 17  1  0
 15 18  2  0
 16 11  1  0
 17 16  2  0
 18 16  1  0
 19  6  2  0
 20  7  2  0
 21 19  1  0
 22 21  2  0
  4  7  1  0
 22 20  1  0
 14  8  2  0
M  END
> <COMPOUND_ID>
DNDI1417312

$$$$

  SciTegic04051205032D

 23 26  0  0  0  0            999 V2000
    7.8602   -8.7445    0.0000 N   0  0
    8.5784   -8.3294    0.0000 C   0  0
    7.1421   -8.3294    0.0000 C   0  0
    7.8602   -7.0881    0.0000 C   0  0
    7.8560   -6.2661    0.0000 C   0  0
    7.1462   -7.4991    0.0000 C   0  0
    8.5743   -7.4950    0.0000 C   0  0
    8.5161   -5.7763    0.0000 S   0  0
    6.4280   -8.7445    0.0000 C   0  0
    9.2924   -8.7404    0.0000 C   0  0
    6.4322   -9.5623    0.0000 N   0  0
    9.2924   -9.5664    0.0000 N   0  0
    7.1835   -5.7888    0.0000 C   0  0
    8.2588   -5.0000    0.0000 C   0  0
    7.4368   -5.0000    0.0000 C   0  0
    5.7181   -9.9774    0.0000 C   0  0
   10.0106   -9.9774    0.0000 C   0  0
   10.0023   -8.3252    0.0000 C   0  0
    5.7140   -8.3252    0.0000 C   0  0
    5.0000   -9.5623    0.0000 C   0  0
   10.7205   -9.5623    0.0000 C   0  0
   10.7164   -8.7362    0.0000 C   0  0
    5.0041   -8.7404    0.0000 C   0  0
  2  1  2  0
  3  1  1  0
  4  7  2  0
  5  4  1  0
  6  3  2  0
  7  2  1  0
  8  5  1  0
  9  3  1  0
 10  2  1  0
 11  9  1  0
 12 10  2  0
 13  5  2  0
 14  8  1  0
 15 13  1  0
 16 11  2  0
 17 12  1  0
 18 10  1  0
 19  9  2  0
 20 16  1  0
 21 17  2  0
 22 18  2  0
 23 19  1  0
  6  4  1  0
 21 22  1  0
 20 23  2  0
 14 15  2  0
M  END
> <COMPOUND_ID>
DNDI1417313

$$$$

  SciTegic04051205032D

 22 24  0  0  0  0            999 V2000
    6.2726   -7.0612    0.0000 C   0  0
    6.9768   -7.4756    0.0000 C   0  0
    6.2983   -6.2360    0.0000 C   0  0
    7.7067   -6.2360    0.0000 C   0  0
    7.7067   -7.0612    0.0000 C   0  0
    5.4364   -7.2922    0.0000 S   0  0
    7.0025   -5.8252    0.0000 C   0  0
    5.0000   -6.5771    0.0000 C   0  0
    8.4364   -5.7995    0.0000 O   0  0
    5.5464   -5.9462    0.0000 C   0  0
   11.2531   -5.9095    0.0000 N   0  0
    9.8448   -5.7995    0.0000 C   0  0
    9.1406   -6.2140    0.0000 C   0  0
   10.5233   -6.2616    0.0000 C   0  0
    9.8448   -5.0000    0.0000 O   0  0
    6.9768   -8.3008    0.0000 C   0  0
    8.4218   -7.4756    0.0000 C   0  0
   11.9060   -6.3826    0.0000 C   0  0
   12.6469   -6.0562    0.0000 C   0  0
   11.8217   -7.1968    0.0000 C   0  0
    7.6957   -8.7262    0.0000 C   0  0
    8.4218   -8.3265    0.0000 C   0  0
  2  1  1  0
  3  1  2  0
  4  7  2  0
  5  2  2  0
  6  1  1  0
  7  3  1  0
  8  6  1  0
  9  4  1  0
 10  3  1  0
 11 14  1  0
 12 13  1  0
 13  9  1  0
 14 12  1  0
 15 12  1  0
 16  2  1  0
 17  5  1  0
 18 11  1  0
 19 18  1  0
 20 18  1  0
 21 16  2  0
 22 21  1  0
  8 10  2  0
  4  5  1  0
 22 17  2  0
M  END
> <COMPOUND_ID>
DNDI1417314

$$$$

  SciTegic04051205032D

 21 23  0  0  0  0            999 V2000
    7.2773   -5.0000    0.0000 S   0  0
    6.9243   -6.7579    0.0000 S   0  0
    8.0616   -5.4691    0.0000 C   0  0
    8.0616   -6.3266    0.0000 C   0  0
    7.6758   -6.7579    0.0000 C   0  0
    6.5384   -5.4691    0.0000 C   0  0
    6.5384   -6.3266    0.0000 C   0  0
    9.2319   -8.6291    0.0000 N   0  0
    8.1953   -7.3783    0.0000 C   0  0
    8.8334   -6.7579    0.0000 C   0  0
    8.8334   -5.0328    0.0000 C   0  0
    7.9230   -8.1348    0.0000 C   0  0
    5.7667   -6.7579    0.0000 C   0  0
    5.7667   -5.0328    0.0000 C   0  0
    8.4425   -8.7553    0.0000 C   0  0
    9.7337   -9.2546    0.0000 C   0  0
    9.4866   -7.8776    0.0000 C   0  0
    9.5799   -6.3266    0.0000 C   0  0
    9.5799   -5.4691    0.0000 C   0  0
    5.0000   -6.3266    0.0000 C   0  0
    5.0000   -5.4691    0.0000 C   0  0
  2  7  1  0
  3  1  1  0
  4  3  2  0
  5  4  1  0
  6  1  1  0
  7  6  2  0
  8 15  1  0
  9  5  1  0
 10  4  1  0
 11  3  1  0
 12  9  1  0
 13  7  1  0
 14  6  1  0
 15 12  1  0
 16  8  1  0
 17  8  1  0
 18 19  1  0
 19 11  2  0
 20 13  2  0
 21 14  2  0
 20 21  1  0
  2  5  1  0
 18 10  2  0
M  END
> <COMPOUND_ID>
DNDI1417315

$$$$

  SciTegic04051205032D

 22 24  0  0  0  0            999 V2000
    7.7046   -6.4327    0.0000 C   0  0
    7.2224   -7.0985    0.0000 N   0  0
    8.5311   -6.4097    0.0000 C   0  0
    7.2087   -5.7715    0.0000 O   0  0
    6.4372   -6.8597    0.0000 C   0  0
    6.4235   -6.0332    0.0000 C   0  0
    8.9168   -5.6934    0.0000 C   0  0
    8.9535   -7.1123    0.0000 C   0  0
    5.7209   -7.2776    0.0000 N   0  0
    9.7937   -8.5311    0.0000 C   0  0
   10.1979   -7.8148    0.0000 N   0  0
    9.7800   -7.1123    0.0000 C   0  0
    8.9672   -8.5449    0.0000 O   0  0
    9.7571   -5.6797    0.0000 C   0  0
   10.1841   -6.3822    0.0000 C   0  0
    8.4897   -5.0000    0.0000 Cl  0  0
    5.7025   -5.6246    0.0000 C   0  0
   10.2208   -9.2474    0.0000 C   0  0
    5.0046   -6.8781    0.0000 C   0  0
    9.8122   -9.9637    0.0000 C   0  0
    5.0000   -6.0516    0.0000 C   0  0
    8.9856   -9.9775    0.0000 C   0  0
  2  1  2  0
  3  1  1  0
  4  1  1  0
  5  2  1  0
  6  4  1  0
  7  3  2  0
  8  3  1  0
  9  5  1  0
 10 11  1  0
 11 12  1  0
 12  8  2  0
 13 10  2  0
 14  7  1  0
 15 12  1  0
 16  7  1  0
 17  6  1  0
 18 10  1  0
 19  9  2  0
 20 18  1  0
 21 17  2  0
 22 20  1  0
  6  5  2  0
 21 19  1  0
 14 15  2  0
M  END
> <COMPOUND_ID>
DNDI1417316

$$$$

  SciTegic04051205032D

 24 27  0  0  0  0            999 V2000
    7.8673   -7.9055    0.0000 C   0  0
    7.1457   -6.6689    0.0000 C   0  0
    7.1457   -7.4986    0.0000 N   0  0
    9.2882   -8.7288    0.0000 N   0  0
    6.4368   -6.2366    0.0000 C   0  0
    7.8673   -8.7288    0.0000 C   0  0
    8.5793   -7.4986    0.0000 C   0  0
    9.2882   -7.9055    0.0000 C   0  0
    8.5793   -9.1484    0.0000 C   0  0
    6.4368   -5.4101    0.0000 C   0  0
    7.8673   -6.2557    0.0000 O   0  0
    7.1457   -5.0000    0.0000 F   0  0
    5.7311   -6.6530    0.0000 C   0  0
    8.5793   -6.6689    0.0000 C   0  0
    7.1679   -9.1388    0.0000 C   0  0
    9.9971   -7.5081    0.0000 C   0  0
    8.5793   -9.9717    0.0000 C   0  0
    5.7311   -5.0000    0.0000 C   0  0
    5.0000   -6.2366    0.0000 C   0  0
    9.2882   -6.2557    0.0000 C   0  0
    7.1552   -9.9622    0.0000 C   0  0
   10.0067   -6.6816    0.0000 C   0  0
    7.8673  -10.3850    0.0000 C   0  0
    5.0000   -5.4101    0.0000 C   0  0
  2  3  1  0
  3  1  1  0
  4  8  1  0
  5  2  1  0
  6  1  2  0
  7  1  1  0
  8  7  2  0
  9  6  1  0
 10  5  2  0
 11  2  2  0
 12 10  1  0
 13  5  1  0
 14  7  1  0
 15  6  1  0
 16  8  1  0
 17  9  1  0
 18 10  1  0
 19 13  2  0
 20 14  2  0
 21 15  2  0
 22 20  1  0
 23 21  1  0
 24 19  1  0
  4  9  2  0
 22 16  2  0
 23 17  2  0
 24 18  2  0
M  END
> <COMPOUND_ID>
DNDI1417317

$$$$

  SciTegic04051205032D

 24 27  0  0  0  0            999 V2000
    7.8635   -6.2397    0.0000 C   0  0
    7.9367   -5.4163    0.0000 N   0  0
    8.6091   -6.5828    0.0000 C   0  0
    7.1499   -6.6605    0.0000 C   0  0
    9.1581   -5.9653    0.0000 C   0  0
    8.7555   -5.2517    0.0000 N   0  0
    6.4272   -6.2397    0.0000 C   0  0
    9.9814   -6.0567    0.0000 C   0  0
    7.1499   -7.4839    0.0000 C   0  0
    5.7136   -6.6605    0.0000 C   0  0
    6.4272   -7.8865    0.0000 C   0  0
    5.7136   -7.4839    0.0000 C   0  0
   10.3108   -6.8024    0.0000 C   0  0
   10.4618   -5.3843    0.0000 C   0  0
   11.6145   -6.2260    0.0000 C   0  0
   11.2851   -5.4712    0.0000 C   0  0
   11.1342   -6.8847    0.0000 C   0  0
    7.8544   -7.9002    0.0000 O   0  0
   12.4379   -6.3174    0.0000 O   0  0
    6.4272   -5.4026    0.0000 C   0  0
    5.0000   -6.2397    0.0000 C   0  0
   12.7672   -7.0631    0.0000 C   0  0
    5.7136   -5.0000    0.0000 C   0  0
    5.0000   -5.4163    0.0000 C   0  0
  2  1  2  0
  3  1  1  0
  4  1  1  0
  5  3  2  0
  6  2  1  0
  7  4  1  0
  8  5  1  0
  9  4  2  0
 10  7  1  0
 11  9  1  0
 12 11  2  0
 13  8  1  0
 14  8  2  0
 15 16  2  0
 16 14  1  0
 17 13  2  0
 18  9  1  0
 19 15  1  0
 20  7  2  0
 21 10  2  0
 22 19  1  0
 23 20  1  0
 24 23  2  0
  5  6  1  0
 10 12  1  0
 24 21  1  0
 17 15  1  0
M  END
> <COMPOUND_ID>
DNDI1417318

$$$$

  SciTegic04051205032D

 23 24  0  0  0  0            999 V2000
    6.3895   -6.7191    0.0000 N   0  0
    6.3895   -8.1351    0.0000 C   0  0
    7.2261   -8.1351    0.0000 N   0  0
    5.9762   -7.4221    0.0000 C   0  0
    7.2261   -6.7191    0.0000 C   0  0
    7.6373   -7.4221    0.0000 N   0  0
   10.9574   -5.9555    0.0000 C   0  0
    5.9712   -8.8340    0.0000 C   0  0
    7.6403   -5.9697    0.0000 N   0  0
   10.1411   -5.9555    0.0000 C   0  0
    5.1650   -7.4221    0.0000 O   0  0
   11.3778   -5.2475    0.0000 O   0  0
    9.6974   -5.2475    0.0000 C   0  0
    9.7339   -6.6706    0.0000 C   0  0
    8.4749   -5.9697    0.0000 C   0  0
   11.4051   -6.6523    0.0000 O   0  0
    8.8912   -6.6706    0.0000 C   0  0
    8.8740   -5.2566    0.0000 C   0  0
    6.4057   -9.4791    0.0000 C   0  0
    5.5944   -9.5460    0.0000 C   0  0
    5.0981   -8.8340    0.0000 C   0  0
   12.2923   -6.6432    0.0000 C   0  0
   12.6560   -7.3157    0.0000 C   0  0
  2  4  1  0
  3  6  1  0
  4  1  1  0
  5  1  1  0
  6  5  2  0
  7 10  1  0
  8  2  1  0
  9  5  1  0
 10 13  2  0
 11  4  2  0
 12  7  2  0
 13 18  1  0
 14 17  2  0
 15  9  1  0
 16  7  1  0
 17 15  1  0
 18 15  2  0
 19  8  1  0
 20  8  1  0
 21  8  1  0
 22 16  1  0
 23 22  1  0
  2  3  2  0
 14 10  1  0
M  END
> <COMPOUND_ID>
DNDI1417319

$$$$

  SciTegic04051205032D

 23 25  0  0  0  0            999 V2000
    7.8593   -8.7117    0.0000 C   0  0
    6.4297   -8.7117    0.0000 C   0  0
    7.1445   -9.1241    0.0000 C   0  0
    7.1445   -7.4745    0.0000 C   0  0
    6.4297   -7.8903    0.0000 C   0  0
    7.8593   -7.8903    0.0000 C   0  0
    8.5742   -9.1241    0.0000 C   0  0
    9.2856   -8.7117    0.0000 N   0  0
    5.7148   -9.1241    0.0000 N   0  0
    7.1445   -6.6531    0.0000 C   0  0
   10.7222   -7.8869    0.0000 O   0  0
    6.4297   -6.2372    0.0000 O   0  0
    7.1445   -9.9524    0.0000 O   0  0
    9.2891   -7.8903    0.0000 C   0  0
   10.0039   -9.1241    0.0000 C   0  0
    5.7148   -7.4745    0.0000 C   0  0
    5.0000   -8.7117    0.0000 C   0  0
    6.4297   -5.4124    0.0000 C   0  0
   10.7188   -8.7117    0.0000 C   0  0
   10.0039   -7.4745    0.0000 C   0  0
    5.0000   -7.8903    0.0000 C   0  0
    7.1411   -5.0000    0.0000 C   0  0
    5.7148   -5.0000    0.0000 C   0  0
  2  3  1  0
  3  1  2  0
  4  6  2  0
  5  4  1  0
  6  1  1  0
  7  1  1  0
  8  7  1  0
  9  2  2  0
 10  4  1  0
 11 19  1  0
 12 10  1  0
 13  3  1  0
 14  8  1  0
 15  8  1  0
 16  5  2  0
 17  9  1  0
 18 12  1  0
 19 15  1  0
 20 14  1  0
 21 16  1  0
 22 18  1  0
 23 18  1  0
  5  2  1  0
 11 20  1  0
 21 17  2  0
M  END
> <COMPOUND_ID>
DNDI1417320

$$$$

  SciTegic04051205032D

 23 26  0  0  0  0            999 V2000
    6.2672   -7.6687    0.0000 C   0  0
    6.2672   -8.4942    0.0000 C   0  0
    6.9731   -8.8997    0.0000 N   0  0
    6.9731   -7.2443    0.0000 N   0  0
    7.6833   -8.4942    0.0000 C   0  0
    7.6833   -7.6471    0.0000 C   0  0
    5.4571   -7.4216    0.0000 N   0  0
    5.4571   -8.7344    0.0000 N   0  0
    5.0000   -8.0759    0.0000 O   0  0
    8.4943   -8.7344    0.0000 N   0  0
    8.4943   -7.4216    0.0000 N   0  0
    8.6699   -6.6089    0.0000 C   0  0
    8.6699   -9.5325    0.0000 C   0  0
    8.0758  -10.1032    0.0000 C   0  0
    8.0758   -6.0408    0.0000 C   0  0
    9.4550   -9.7726    0.0000 C   0  0
    9.4550   -6.3817    0.0000 C   0  0
    8.2773   -5.2428    0.0000 C   0  0
    8.2644  -10.9012    0.0000 C   0  0
    9.6590   -5.5708    0.0000 C   0  0
    9.6461  -10.5577    0.0000 C   0  0
    9.0624  -11.1414    0.0000 C   0  0
    9.0624   -5.0000    0.0000 C   0  0
  2  1  1  0
  3  2  1  0
  4  1  1  0
  5  6  1  0
  6  4  2  0
  7  1  2  0
  8  2  2  0
  9  7  1  0
 10  5  1  0
 11  6  1  0
 12 11  1  0
 13 10  1  0
 14 13  1  0
 15 12  1  0
 16 13  1  0
 17 12  1  0
 18 15  1  0
 19 14  1  0
 20 17  1  0
 21 16  1  0
 22 21  1  0
 23 20  1  0
  8  9  1  0
  3  5  2  0
 18 23  1  0
 19 22  1  0
M  END
> <COMPOUND_ID>
DNDI1417321

$$$$

  SciTegic04051205032D

 20 21  0  0  0  0            999 V2000
    7.1265   -7.5222    0.0000 C   0  0
    6.4255   -7.9266    0.0000 C   0  0
   12.1476   -6.2422    0.0000 N   0  0
    7.1265   -6.6960    0.0000 C   0  0
   13.5672   -5.4131    0.0000 N   0  0
    6.4255   -6.2800    0.0000 C   0  0
    5.7273   -7.5222    0.0000 C   0  0
    7.8509   -7.9411    0.0000 Cl  0  0
    5.7273   -6.6960    0.0000 C   0  0
    5.0000   -7.9266    0.0000 Cl  0  0
    7.8509   -6.2655    0.0000 O   0  0
   11.4349   -6.6640    0.0000 C   0  0
   12.1388   -5.4131    0.0000 C   0  0
   12.8515   -6.6524    0.0000 C   0  0
   12.8515   -5.0000    0.0000 C   0  0
   13.5672   -6.2422    0.0000 C   0  0
    8.5636   -6.6757    0.0000 C   0  0
   10.7105   -6.2568    0.0000 C   0  0
    9.2821   -6.2568    0.0000 C   0  0
    9.9949   -6.6757    0.0000 C   0  0
  2  1  1  0
  3 12  1  0
  4  1  2  0
  5 15  1  0
  6  4  1  0
  7  2  2  0
  8  1  1  0
  9  7  1  0
 10  7  1  0
 11  4  1  0
 12 18  1  0
 13  3  1  0
 14  3  1  0
 15 13  1  0
 16 14  1  0
 17 11  1  0
 18 20  1  0
 19 17  1  0
 20 19  1  0
  9  6  2  0
  5 16  1  0
M  END
> <COMPOUND_ID>
DNDI1417322

$$$$

  SciTegic04051205032D

 23 25  0  0  0  0            999 V2000
   10.0010   -6.0318    0.0000 C   0  0
   10.2932   -6.8213    0.0000 C   0  0
    7.2943   -6.9699    0.0000 C   0  0
    8.6682   -6.5444    0.0000 N   0  0
    8.9398   -7.3390    0.0000 N   0  0
    6.4998   -6.7444    0.0000 C   0  0
    7.8531   -6.3753    0.0000 C   0  0
    9.7549   -7.4826    0.0000 C   0  0
    5.9410   -7.3595    0.0000 N   0  0
    6.2845   -5.9601    0.0000 C   0  0
    7.6378   -5.5910    0.0000 C   0  0
    9.2064   -6.3291    0.0000 F   0  0
   10.7853   -5.7601    0.0000 F   0  0
    9.7293   -5.2475    0.0000 F   0  0
    6.8483   -5.3910    0.0000 C   0  0
    5.4950   -5.7396    0.0000 O   0  0
   11.1082   -6.9699    0.0000 C   0  0
    7.5148   -7.7542    0.0000 C   0  0
    6.1615   -8.1233    0.0000 C   0  0
   10.0471   -8.2463    0.0000 C   0  0
    6.9458   -8.3438    0.0000 C   0  0
   11.4004   -7.7542    0.0000 C   0  0
   10.8622   -8.3899    0.0000 C   0  0
  2  1  1  0
  3  7  1  0
  4  5  2  0
  5  8  1  0
  6  3  2  0
  7  4  1  0
  8  2  1  0
  9  6  1  0
 10 15  2  0
 11  7  2  0
 12  1  1  0
 13  1  1  0
 14  1  1  0
 15 11  1  0
 16 10  1  0
 17  2  2  0
 18  3  1  0
 19 21  1  0
 20  8  2  0
 21 18  2  0
 22 17  1  0
 23 22  2  0
 20 23  1  0
  6 10  1  0
 19  9  2  0
M  END
> <COMPOUND_ID>
DNDI1417323

$$$$

  SciTegic04051205032D

 24 27  0  0  0  0            999 V2000
    7.6930   -7.5238    0.0000 C   0  0
    7.2129   -6.8517    0.0000 C   0  0
    7.1992   -8.1913    0.0000 N   0  0
    8.5160   -7.4369    0.0000 N   0  0
    6.4265   -7.1123    0.0000 C   0  0
    6.4265   -7.9353    0.0000 C   0  0
    7.5421   -6.0973    0.0000 N   0  0
    8.8589   -6.6871    0.0000 C   0  0
    8.3651   -6.0104    0.0000 N   0  0
   10.0111   -5.8458    0.0000 N   0  0
   10.8341   -5.7544    0.0000 C   0  0
    9.6819   -6.6002    0.0000 N   0  0
   11.3141   -6.4128    0.0000 C   0  0
   12.1325   -6.3396    0.0000 N   0  0
    5.6995   -8.3559    0.0000 C   0  0
    5.6995   -6.7008    0.0000 C   0  0
   11.1770   -5.0000    0.0000 C   0  0
    5.0000   -7.1123    0.0000 C   0  0
   12.6263   -6.9980    0.0000 C   0  0
    5.0000   -7.9353    0.0000 C   0  0
    5.6995   -9.1789    0.0000 C   0  0
   10.9850   -7.1672    0.0000 C   0  0
   12.2834   -7.7524    0.0000 C   0  0
   11.4741   -7.8393    0.0000 C   0  0
  2  1  1  0
  3  1  1  0
  4  1  2  0
  5  2  1  0
  6  3  1  0
  7  2  2  0
  8  4  1  0
  9  8  2  0
 10 12  1  0
 11 10  2  0
 12  8  1  0
 13 11  1  0
 14 13  2  0
 15  6  1  0
 16  5  1  0
 17 11  1  0
 18 16  2  0
 19 14  1  0
 20 15  2  0
 21 15  1  0
 22 13  1  0
 23 24  1  0
 24 22  2  0
  5  6  2  0
  7  9  1  0
 20 18  1  0
 19 23  2  0
M  END
> <COMPOUND_ID>
DNDI1417324

$$$$

  SciTegic04051205032D

 22 23  0  0  0  0            999 V2000
    6.4082   -6.8989    0.0000 C   0  0
    6.0595   -6.2659    0.0000 C   0  0
   10.9444   -7.6006    0.0000 C   0  0
   10.9215   -8.4400    0.0000 C   0  0
   10.2426   -7.1741    0.0000 C   0  0
    5.3440   -6.2475    0.0000 S   0  0
    9.5133   -7.5594    0.0000 C   0  0
    8.0823   -7.5135    0.0000 N   0  0
    7.1237   -6.9218    0.0000 N   0  0
   11.6186   -8.8666    0.0000 N   0  0
    6.4448   -5.6558    0.0000 C   0  0
    6.0229   -7.5135    0.0000 O   0  0
    5.0000   -5.6192    0.0000 C   0  0
   10.1922   -8.8253    0.0000 C   0  0
    9.4904   -8.3850    0.0000 C   0  0
    5.3761   -5.0000    0.0000 C   0  0
    8.8115   -7.1282    0.0000 C   0  0
   10.2747   -6.3485    0.0000 O   0  0
   11.5957   -9.6922    0.0000 C   0  0
   12.3388   -8.4813    0.0000 C   0  0
   12.2837  -10.1325    0.0000 C   0  0
   13.0497   -8.9216    0.0000 C   0  0
  2  1  1  0
  3  5  2  0
  4 14  2  0
  5  7  1  0
  6  2  1  0
  7 17  1  0
  8  9  1  0
  9  1  1  0
 10  4  1  0
 11  2  2  0
 12  1  2  0
 13  6  1  0
 14 15  1  0
 15  7  2  0
 16 11  1  0
 17  8  2  0
 18  5  1  0
 19 10  1  0
 20 10  1  0
 21 19  1  0
 22 20  1  0
 16 13  2  0
  3  4  1  0
M  END
> <COMPOUND_ID>
DNDI1417325

$$$$

  SciTegic04051205032D

 23 25  0  0  0  0            999 V2000
   11.0102   -7.0892    0.0000 O   0  0
   13.0376   -6.1202    0.0000 N   0  0
   10.5875   -5.8247    0.0000 O   0  0
   11.6872   -6.5944    0.0000 C   0  0
   10.3470   -6.5944    0.0000 C   0  0
    5.7869   -7.1958    0.0000 C   0  0
    6.5979   -6.9690    0.0000 C   0  0
   12.4740   -6.7456    0.0000 C   0  0
    7.1787   -7.5291    0.0000 C   0  0
    6.7938   -6.1580    0.0000 C   0  0
   11.4019   -5.8041    0.0000 C   0  0
    9.5532   -6.8418    0.0000 C   0  0
    8.1615   -6.5051    0.0000 C   0  0
    7.5636   -5.9243    0.0000 C   0  0
    7.9690   -7.2954    0.0000 C   0  0
    8.9380   -6.2645    0.0000 C   0  0
   12.9895   -5.2954    0.0000 C   0  0
   13.8348   -6.3333    0.0000 C   0  0
    5.5636   -6.3882    0.0000 C   0  0
    6.0206   -7.9861    0.0000 C   0  0
    5.0000   -7.4226    0.0000 C   0  0
   13.7593   -5.0000    0.0000 C   0  0
   14.2816   -5.6426    0.0000 C   0  0
  2  8  1  0
  3  5  1  0
  4  1  1  0
  5  1  1  0
  6  7  1  0
  7  9  2  0
  8  4  1  0
  9 15  1  0
 10 14  2  0
 11  4  1  0
 12  5  1  0
 13 16  1  0
 14 13  1  0
 15 13  2  0
 16 12  1  0
 17  2  1  0
 18  2  1  0
 19  6  1  0
 20  6  1  0
 21  6  1  0
 22 17  1  0
 23 18  1  0
  3 11  1  0
 23 22  1  0
  7 10  1  0
M  END
> <COMPOUND_ID>
DNDI1417326

$$$$

  SciTegic04051205032D

 23 24  0  0  0  0            999 V2000
    6.4277   -6.2264    0.0000 C   0  0
    7.1416   -6.6474    0.0000 C   0  0
    8.5693   -6.6474    0.0000 N   0  0
    9.2832   -6.2264    0.0000 C   0  0
    9.9971   -6.6474    0.0000 C   0  0
    7.8555   -6.2264    0.0000 O   0  0
   10.6972   -6.2264    0.0000 C   0  0
   11.4248   -6.6474    0.0000 C   0  0
    5.7139   -6.6474    0.0000 C   0  0
   11.4248   -7.4711    0.0000 C   0  0
    7.1416   -7.4711    0.0000 O   0  0
    9.9971   -7.4711    0.0000 C   0  0
   10.6972   -7.8738    0.0000 C   0  0
    9.2832   -5.4027    0.0000 N   0  0
    5.7139   -7.4711    0.0000 F   0  0
   12.1387   -6.2264    0.0000 O   0  0
    6.4277   -5.4027    0.0000 C   0  0
   12.1387   -7.8738    0.0000 O   0  0
    5.0000   -6.2264    0.0000 C   0  0
   12.8526   -6.6474    0.0000 C   0  0
   12.8526   -7.4711    0.0000 C   0  0
    5.7139   -5.0000    0.0000 C   0  0
    5.0000   -5.4027    0.0000 C   0  0
  2  1  1  0
  3  6  1  0
  4  3  2  0
  5  4  1  0
  6  2  1  0
  7  5  1  0
  8  7  2  0
  9  1  1  0
 10 13  2  0
 11  2  2  0
 12  5  2  0
 13 12  1  0
 14  4  1  0
 15  9  1  0
 16  8  1  0
 17  1  2  0
 18 10  1  0
 19  9  2  0
 20 16  1  0
 21 18  1  0
 22 17  1  0
 23 22  2  0
 19 23  1  0
  8 10  1  0
M  END
> <COMPOUND_ID>
DNDI1417327

$$$$

  SciTegic04051205032D

 22 25  0  0  0  0            999 V2000
    7.5961   -7.9139    0.0000 N   0  0
    6.6793   -8.1890    0.0000 N   0  0
    7.2355   -8.3861    0.0000 C   0  0
    6.6793   -7.6145    0.0000 C   0  0
    7.2355   -7.4173    0.0000 N   0  0
    7.5441   -7.2049    0.0000 C   0  0
    8.0408   -6.3232    0.0000 C   0  0
    9.0768   -6.3232    0.0000 O   0  0
    8.0744   -8.0683    0.0000 C   0  0
    9.5657   -7.2049    0.0000 C   0  0
    9.0768   -8.0683    0.0000 C   0  0
    6.1827   -7.2966    0.0000 C   0  0
    9.5657   -5.2475    0.0000 O   0  0
    7.4403   -8.9515    0.0000 S   0  0
    8.0408   -5.2475    0.0000 C   0  0
    9.5657   -8.9591    0.0000 O   0  0
    5.1650   -7.2309    0.0000 N   0  0
    6.2010   -8.5404    0.0000 C   0  0
    5.6433   -7.5442    0.0000 C   0  0
    6.2010   -6.6976    0.0000 C   0  0
    5.2063   -6.6319    0.0000 C   0  0
    5.7380   -6.3660    0.0000 C   0  0
  2  3  1  0
  3  1  1  0
  4  5  2  0
  5  1  1  0
  6  1  1  0
  7  6  1  0
  8  7  1  0
  9  6  1  0
 10 11  1  0
 11  9  1  0
 12  4  1  0
 13 15  1  0
 14  3  2  0
 15  7  1  0
 16 11  2  0
 17 19  2  0
 18  2  1  0
 19 12  1  0
 20 12  2  0
 21 17  1  0
 22 20  1  0
  2  4  1  0
 10  8  1  0
 13 10  1  0
 21 22  2  0
M  END
> <COMPOUND_ID>
DNDI1417328

$$$$

  SciTegic04051205032D

 24 25  0  0  0  0            999 V2000
    9.8929   -7.1623    0.0000 C   0  0
   10.7028   -7.0084    0.0000 C   0  0
    9.3614   -6.5650    0.0000 C   0  0
    9.8745   -5.0000    0.0000 N   0  0
   12.5830   -5.9199    0.0000 N   0  0
   10.9630   -6.2461    0.0000 C   0  0
   11.7583   -6.0812    0.0000 C   0  0
   10.4242   -5.6120    0.0000 C   0  0
    8.5258   -6.7409    0.0000 C   0  0
    9.6326   -5.7806    0.0000 O   0  0
   11.2416   -7.6315    0.0000 C   0  0
    7.9723   -6.1398    0.0000 C   0  0
    8.2766   -7.5216    0.0000 C   0  0
    6.9205   -7.0891    0.0000 C   0  0
    7.4739   -7.7048    0.0000 C   0  0
    7.1660   -6.3084    0.0000 C   0  0
    6.0738   -7.2723    0.0000 O   0  0
   12.0479   -7.4702    0.0000 C   0  0
   10.9630   -8.4195    0.0000 C   0  0
    5.8063   -8.0603    0.0000 C   0  0
    5.0000   -8.2362    0.0000 C   0  0
   11.5311   -9.0279    0.0000 C   0  0
   12.5830   -8.1006    0.0000 C   0  0
   12.3118   -8.8666    0.0000 C   0  0
  2  1  1  0
  3  1  1  0
  4  8  3  0
  5  7  3  0
  6  2  1  0
  7  6  1  0
  8  6  1  0
  9  3  1  0
 10  3  2  0
 11  2  1  0
 12  9  2  0
 13  9  1  0
 14 15  1  0
 15 13  2  0
 16 12  1  0
 17 14  1  0
 18 11  1  0
 19 11  2  0
 20 17  1  0
 21 20  1  0
 22 19  1  0
 23 18  2  0
 24 23  1  0
 14 16  2  0
 24 22  2  0
M  END
> <COMPOUND_ID>
DNDI1417329

$$$$

  SciTegic04051205032D

 23 26  0  0  0  0            999 V2000
    7.7002   -7.2480    0.0000 C   0  0
    7.4552   -6.4607    0.0000 C   0  0
    7.0492   -7.7302    0.0000 C   0  0
    7.9998   -5.8614    0.0000 N   0  0
    6.6336   -6.4607    0.0000 C   0  0
    6.3790   -7.2480    0.0000 C   0  0
    7.0589   -8.5421    0.0000 N   0  0
    8.4927   -7.4305    0.0000 C   0  0
    8.8021   -6.0418    0.0000 C   0  0
    7.7646   -9.7601    0.0000 C   0  0
    7.7646   -8.9384    0.0000 N   0  0
    9.0566   -6.8119    0.0000 C   0  0
    8.4927  -10.1467    0.0000 S   0  0
    9.3692   -5.4135    0.0000 C   0  0
    9.8718   -6.9827    0.0000 C   0  0
    7.0589  -10.2112    0.0000 N   0  0
   10.1908   -5.5821    0.0000 C   0  0
   10.4357   -6.3737    0.0000 C   0  0
    6.0794   -5.8388    0.0000 C   0  0
    5.5574   -7.4209    0.0000 C   0  0
   10.7354   -5.0000    0.0000 C   0  0
    5.0000   -6.8022    0.0000 C   0  0
    5.2578   -6.0225    0.0000 C   0  0
  2  1  1  0
  3  1  1  0
  4  2  2  0
  5  2  1  0
  6  3  1  0
  7  3  2  0
  8  1  2  0
  9 12  2  0
 10 11  1  0
 11  7  1  0
 12  8  1  0
 13 10  2  0
 14  9  1  0
 15 12  1  0
 16 10  1  0
 17 18  1  0
 18 15  2  0
 19  5  2  0
 20  6  2  0
 21 17  1  0
 22 20  1  0
 23 19  1  0
  5  6  1  0
  4  9  1  0
 23 22  2  0
 14 17  2  0
M  END
> <COMPOUND_ID>
DNDI1417330

$$$$

  SciTegic04051205032D

 24 27  0  0  0  0            999 V2000
    7.7858   -6.2028    0.0000 C   0  0
    7.1170   -6.5877    0.0000 N   0  0
    7.7858   -5.4378    0.0000 C   0  0
    8.5171   -6.6454    0.0000 N   0  0
    8.5171   -5.0000    0.0000 N   0  0
    6.4434   -5.4378    0.0000 C   0  0
    6.4434   -6.2028    0.0000 C   0  0
    7.1170   -7.4009    0.0000 C   0  0
    9.2292   -6.2268    0.0000 C   0  0
    9.2292   -5.4041    0.0000 C   0  0
    6.4241   -7.8050    0.0000 C   0  0
    6.4241   -8.6277    0.0000 N   0  0
    5.7794   -5.0577    0.0000 C   0  0
    5.7794   -6.5877    0.0000 C   0  0
    9.9605   -5.0000    0.0000 C   0  0
    9.9605   -6.6454    0.0000 C   0  0
    7.1314   -9.0319    0.0000 C   0  0
    5.7217   -9.0415    0.0000 C   0  0
    5.1106   -5.4378    0.0000 C   0  0
    5.1106   -6.2028    0.0000 C   0  0
    7.1314   -9.8402    0.0000 C   0  0
    5.0000   -8.6518    0.0000 C   0  0
   10.6726   -6.2268    0.0000 C   0  0
   10.6726   -5.4041    0.0000 C   0  0
  2  1  1  0
  3  1  1  0
  4  1  2  0
  5  3  2  0
  6  3  1  0
  7  2  1  0
  8  2  1  0
  9  4  1  0
 10  9  2  0
 11  8  1  0
 12 11  1  0
 13  6  1  0
 14  7  1  0
 15 10  1  0
 16  9  1  0
 17 12  1  0
 18 12  1  0
 19 13  2  0
 20 14  2  0
 21 17  1  0
 22 18  1  0
 23 16  2  0
 24 23  1  0
  6  7  2  0
  5 10  1  0
 19 20  1  0
 15 24  2  0
M  END
> <COMPOUND_ID>
DNDI1417331

$$$$

  SciTegic04051205032D

 24 27  0  0  0  0            999 V2000
    7.1357   -7.0826    0.0000 C   0  0
    7.8420   -6.6695    0.0000 C   0  0
    7.8420   -5.8431    0.0000 C   0  0
    7.1357   -5.4299    0.0000 N   0  0
    6.4182   -6.6695    0.0000 C   0  0
    6.4182   -5.8431    0.0000 C   0  0
    7.1357   -7.9118    0.0000 N   0  0
    8.5735   -5.4299    0.0000 C   0  0
    9.2881   -5.0000    0.0000 N   0  0
    8.5623   -7.0826    0.0000 C   0  0
    7.1357   -9.5673    0.0000 N   0  0
    5.7175   -7.0826    0.0000 C   0  0
    6.4182   -8.3250    0.0000 C   0  0
    7.8420   -8.3250    0.0000 C   0  0
    5.7175   -5.4299    0.0000 C   0  0
    6.4182   -9.1541    0.0000 C   0  0
    7.8420   -9.1541    0.0000 C   0  0
    8.5623   -7.9118    0.0000 C   0  0
    9.2602   -6.6695    0.0000 C   0  0
    5.0000   -6.6695    0.0000 C   0  0
    5.0000   -5.8431    0.0000 C   0  0
    9.9777   -7.0826    0.0000 C   0  0
    9.2602   -8.3250    0.0000 C   0  0
    9.9777   -7.9118    0.0000 C   0  0
  2  1  2  0
  3  2  1  0
  4  6  1  0
  5  1  1  0
  6  5  2  0
  7  1  1  0
  8  3  1  0
  9  8  3  0
 10  2  1  0
 11 17  1  0
 12  5  1  0
 13  7  1  0
 14  7  1  0
 15  6  1  0
 16 13  1  0
 17 14  1  0
 18 10  1  0
 19 10  2  0
 20 12  1  0
 21 20  1  0
 22 19  1  0
 23 18  2  0
 24 23  1  0
 11 16  1  0
  4  3  2  0
 21 15  1  0
 24 22  2  0
M  END
> <COMPOUND_ID>
DNDI1417332

$$$$

  SciTegic04051205032D

 22 25  0  0  0  0            999 V2000
    7.0754   -6.5246    0.0000 C   0  0
    7.7854   -6.9388    0.0000 C   0  0
    9.2737   -6.9069    0.0000 N   0  0
   10.6937   -6.8933    0.0000 C   0  0
    9.9837   -6.4883    0.0000 C   0  0
   11.4037   -6.4883    0.0000 C   0  0
    6.3608   -6.2698    0.0000 C   0  0
    7.5123   -5.8329    0.0000 C   0  0
    6.2562   -6.7977    0.0000 C   0  0
    8.5637   -6.4883    0.0000 O   0  0
   12.1546   -6.8159    0.0000 S   0  0
    5.8875   -5.6690    0.0000 C   0  0
    7.0708   -5.1775    0.0000 C   0  0
    5.7783   -6.1423    0.0000 C   0  0
   12.7008   -6.2152    0.0000 C   0  0
    7.7808   -7.8354    0.0000 O   0  0
   11.4946   -5.6690    0.0000 C   0  0
   12.2912   -5.5052    0.0000 C   0  0
    5.0000   -5.9011    0.0000 C   0  0
    6.3244   -5.0000    0.0000 C   0  0
    6.2516   -5.4323    0.0000 C   0  0
    9.9837   -5.6690    0.0000 N   0  0
  2  1  1  0
  3 10  1  0
  4  5  1  0
  5  3  2  0
  6  4  1  0
  7  1  1  0
  8  1  1  0
  9  1  1  0
 10  2  1  0
 11  6  1  0
 12  7  1  0
 13  8  1  0
 14  9  1  0
 15 11  1  0
 16  2  2  0
 17  6  2  0
 18 17  1  0
 19 14  1  0
 20 13  1  0
 21 14  1  0
 22  5  1  0
 21 13  1  0
 12 19  1  0
 20 12  1  0
 18 15  2  0
M  END
> <COMPOUND_ID>
DNDI1417333

$$$$

  SciTegic04051205032D

 24 26  0  0  0  0            999 V2000
    8.0096   -7.1068    0.0000 N   0  3
    7.2250   -6.8344    0.0000 N   0  0
    7.2250   -5.9889    0.0000 C   0  0
    8.5005   -6.3974    0.0000 C   0  0
    8.0096   -5.7166    0.0000 C   0  0
    9.3425   -6.3974    0.0000 C   0  0
    9.7617   -5.6843    0.0000 C   0  0
    6.4833   -7.2751    0.0000 C   0  0
   12.1371   -5.6879    0.0000 C   0  0
   12.9325   -5.6879    0.0000 N   0  0
    8.2569   -7.9093    0.0000 C   0  0
   11.7824   -5.0000    0.0000 C   0  0
   11.7824   -6.3615    0.0000 C   0  0
   10.5786   -5.6879    0.0000 C   0  0
   10.9763   -6.3615    0.0000 C   0  0
   10.9763   -5.0000    0.0000 C   0  0
   13.3589   -6.3615    0.0000 C   0  0
   13.3589   -5.0000    0.0000 C   0  0
    5.7524   -6.8596    0.0000 C   0  0
    6.4833   -8.1064    0.0000 C   0  0
    9.0738   -8.0813    0.0000 C   0  0
    5.0000   -7.2788    0.0000 C   0  0
    5.7524   -8.5471    0.0000 C   0  0
    5.0000   -8.1172    0.0000 C   0  0
  2  1  1  0
  3  2  1  0
  4  1  2  0
  5  4  1  0
  6  4  1  0
  7  6  2  0
  8  2  1  0
  9 12  2  0
 10  9  1  0
 11  1  1  0
 12 16  1  0
 13 15  2  0
 14  7  1  0
 15 14  1  0
 16 14  2  0
 17 10  1  0
 18 10  1  0
 19  8  2  0
 20  8  1  0
 21 11  1  0
 22 19  1  0
 23 20  2  0
 24 23  1  0
  3  5  2  0
 22 24  2  0
 13  9  1  0
M  CHG  1   1   1
M  END
> <COMPOUND_ID>
DNDI1417334

$$$$

  SciTegic04051205032D

 23 24  0  0  0  0            999 V2000
    7.8267   -7.5182    0.0000 C   0  0
   12.8569   -6.2403    0.0000 N   0  0
    7.8267   -6.6936    0.0000 C   0  0
   14.2702   -5.4155    0.0000 N   0  0
    7.1216   -7.9337    0.0000 C   0  0
    7.1216   -6.2875    0.0000 C   0  0
    5.6956   -8.7617    0.0000 C   0  0
    5.0000   -9.1740    0.0000 C   0  0
    6.4071   -7.5182    0.0000 C   0  0
    6.4071   -6.6936    0.0000 C   0  0
    8.5444   -7.9337    0.0000 O   0  0
    8.5507   -6.2717    0.0000 O   0  0
   12.1360   -6.6621    0.0000 C   0  0
   12.8412   -5.4155    0.0000 C   0  0
   13.5557   -6.6621    0.0000 C   0  0
   13.5557   -5.0000    0.0000 C   0  0
   14.2702   -6.2403    0.0000 C   0  0
    5.6956   -7.9337    0.0000 C   0  0
    9.2652   -6.6778    0.0000 C   0  0
    9.2652   -7.5277    0.0000 C   0  0
   11.4121   -6.2560    0.0000 C   0  0
    9.9798   -6.2592    0.0000 C   0  0
   10.6975   -6.6683    0.0000 C   0  0
  2 13  1  0
  3  1  2  0
  4 16  1  0
  5  1  1  0
  6  3  1  0
  7 18  1  0
  8  7  2  0
  9  5  2  0
 10  9  1  0
 11  1  1  0
 12  3  1  0
 13 21  1  0
 14  2  1  0
 15  2  1  0
 16 14  1  0
 17 15  1  0
 18  9  1  0
 19 12  1  0
 20 11  1  0
 21 23  1  0
 22 19  1  0
 23 22  1  0
 10  6  2  0
  4 17  1  0
M  END
> <COMPOUND_ID>
DNDI1417335

$$$$

  SciTegic04051205032D

 23 24  0  0  0  0            999 V2000
   12.8830   -6.6067    0.0000 N   0  0
    5.6182   -8.8805    0.0000 C   0  0
    6.1796   -8.7137    0.0000 C   0  0
   12.4721   -5.0000    0.0000 N   0  0
    6.1796   -7.9124    0.0000 C   0  0
    6.8588   -9.1204    0.0000 C   0  0
    7.5504   -7.9124    0.0000 C   0  0
    6.8588   -7.5097    0.0000 C   0  0
    7.5504   -8.7137    0.0000 C   0  0
    8.4086   -7.4650    0.0000 O   0  0
   13.0741   -7.3876    0.0000 C   0  0
   12.1101   -6.3911    0.0000 C   0  0
   13.4809   -6.0372    0.0000 C   0  0
   11.8741   -5.5816    0.0000 C   0  0
   13.2449   -5.2278    0.0000 C   0  0
    5.0000   -9.0066    0.0000 C   0  0
    5.0244   -8.5673    0.0000 C   0  0
    5.4759   -9.4337    0.0000 C   0  0
    9.2424   -7.9734    0.0000 C   0  0
   12.4925   -7.9734    0.0000 C   0  0
   10.1943   -7.4365    0.0000 C   0  0
   10.9386   -8.0100    0.0000 C   0  0
   11.7196   -7.3673    0.0000 C   0  0
  2  3  1  0
  3  6  2  0
  4 14  1  0
  5  8  2  0
  6  9  1  0
  7 10  1  0
  8  7  1  0
  9  7  2  0
 10 19  1  0
 11  1  1  0
 12  1  1  0
 13  1  1  0
 14 12  1  0
 15 13  1  0
 16  2  1  0
 17  2  1  0
 18  2  1  0
 19 21  1  0
 20 11  1  0
 21 22  1  0
 22 23  1  0
 23 20  1  0
  4 15  1  0
  3  5  1  0
M  END
> <COMPOUND_ID>
DNDI1417336

$$$$

  SciTegic04051205032D

 17 17  0  0  0  0            999 V2000
    7.4699   -6.4907    0.0000 C   0  0
    6.7537   -6.9041    0.0000 C   0  0
    7.4699   -5.6668    0.0000 C   0  0
    6.7537   -5.2563    0.0000 C   0  0
    6.0491   -6.4907    0.0000 C   0  0
   13.1937   -5.6231    0.0000 C   0  0
   13.9071   -5.2155    0.0000 C   0  0
    8.1832   -6.9187    0.0000 Cl  0  0
    6.0491   -5.6668    0.0000 C   0  0
   11.7672   -5.6318    0.0000 N   0  0
    5.3300   -6.9041    0.0000 Br  0  0
    8.1832   -5.2475    0.0000 O   0  0
   12.4804   -5.2155    0.0000 C   0  0
   11.0568   -5.2213    0.0000 C   0  0
    8.8965   -5.6551    0.0000 C   0  0
   10.3405   -5.6406    0.0000 C   0  0
    9.6098   -5.2359    0.0000 C   0  0
  2  1  1  0
  3  1  2  0
  4  3  1  0
  5  2  2  0
  6 13  1  0
  7  6  2  0
  8  1  1  0
  9  5  1  0
 10 14  1  0
 11  5  1  0
 12  3  1  0
 13 10  1  0
 14 16  1  0
 15 12  1  0
 16 17  1  0
 17 15  1  0
  9  4  2  0
M  END
> <COMPOUND_ID>
DNDI1417337

$$$$

  SciTegic04051205032D

 22 24  0  0  0  0            999 V2000
    8.7513   -6.1588    0.0000 C   0  0
    8.7376   -5.3335    0.0000 N   0  0
    7.9640   -6.4097    0.0000 O   0  0
    7.9605   -5.0757    0.0000 N   0  0
    7.4722   -5.7495    0.0000 C   0  0
    9.4115   -6.6333    0.0000 C   0  0
    5.4161   -6.4716    0.0000 C   0  0
    6.2413   -6.4682    0.0000 C   0  0
    5.0035   -7.1834    0.0000 C   0  0
    6.6401   -5.7495    0.0000 C   0  0
   10.1680   -6.2963    0.0000 C   0  0
    6.6539   -7.1731    0.0000 C   0  0
    5.4229   -7.8951    0.0000 C   0  0
    5.0000   -5.7565    0.0000 Cl  0  0
    6.2516   -7.8918    0.0000 C   0  0
    5.0035   -8.6069    0.0000 F   0  0
    9.3325   -7.4585    0.0000 C   0  0
   10.2471   -5.4813    0.0000 O   0  0
   10.8350   -6.7811    0.0000 C   0  0
    9.5835   -5.0000    0.0000 C   0  0
    9.9995   -7.9467    0.0000 C   0  0
   10.7594   -7.6098    0.0000 C   0  0
  2  1  2  0
  3  1  1  0
  4  2  1  0
  5  3  1  0
  6  1  1  0
  7  8  2  0
  8 10  1  0
  9  7  1  0
 10  5  1  0
 11  6  1  0
 12  8  1  0
 13 15  1  0
 14  7  1  0
 15 12  2  0
 16 13  1  0
 17  6  2  0
 18 11  1  0
 19 11  2  0
 20 18  1  0
 21 17  1  0
 22 21  2  0
  4  5  2  0
 19 22  1  0
  9 13  2  0
M  END
> <COMPOUND_ID>
DNDI1417338

$$$$

  SciTegic04051205032D

 21 23  0  0  0  0            999 V2000
    8.6390   -6.0558    0.0000 C   0  0
    7.8465   -6.2650    0.0000 C   0  0
    9.2254   -6.6391    0.0000 N   0  0
    7.6342   -7.0734    0.0000 C   0  0
    9.0162   -7.4347    0.0000 N   0  0
    6.2267   -6.6962    0.0000 C   0  0
    6.8259   -7.2953    0.0000 S   0  0
    8.2206   -7.6439    0.0000 C   0  0
    5.4438   -6.9212    0.0000 N   0  0
    6.2679   -5.8751    0.0000 N   0  0
    5.4881   -5.5930    0.0000 C   0  0
    8.8355   -5.2475    0.0000 O   0  0
   10.0211   -6.4299    0.0000 C   0  0
    5.0000   -6.2238    0.0000 C   0  0
    7.2728   -5.6786    0.0000 Cl  0  0
    5.1522   -7.7010    0.0000 C   0  0
   10.6043   -7.0195    0.0000 C   0  0
   10.2303   -5.6342    0.0000 C   0  0
   11.0259   -5.4124    0.0000 C   0  0
   11.3873   -6.7944    0.0000 C   0  0
   11.6092   -5.9988    0.0000 C   0  0
  2  1  1  0
  3  1  1  0
  4  2  2  0
  5  3  1  0
  6  7  1  0
  7  4  1  0
  8  4  1  0
  9  6  1  0
 10  6  2  0
 11 10  1  0
 12  1  2  0
 13  3  1  0
 14  9  1  0
 15  2  1  0
 16  9  1  0
 17 13  2  0
 18 13  1  0
 19 18  2  0
 20 17  1  0
 21 19  1  0
  8  5  2  0
 21 20  2  0
 11 14  2  0
M  END
> <COMPOUND_ID>
DNDI1417339

$$$$

  SciTegic04051205032D

 19 20  0  0  0  0            999 V2000
    6.4157   -6.2164    0.0000 C   0  0
    7.1235   -6.6355    0.0000 C   0  0
    8.6182   -6.5840    0.0000 N   0  0
    9.3260   -6.1854    0.0000 C   0  0
    7.9104   -6.1854    0.0000 O   0  0
    5.7078   -6.6355    0.0000 C   0  0
    7.1097   -7.5255    0.0000 O   0  0
   10.0339   -6.5840    0.0000 C   0  0
    9.3260   -5.3676    0.0000 N   0  0
    5.7078   -7.4534    0.0000 Br  0  0
    6.4157   -5.4020    0.0000 C   0  0
    5.0000   -6.2026    0.0000 C   0  0
   10.0339   -7.4018    0.0000 C   0  0
   10.7417   -6.1854    0.0000 C   0  0
    5.7216   -5.0000    0.0000 C   0  0
    5.0000   -5.3882    0.0000 C   0  0
   10.7417   -7.8210    0.0000 C   0  0
   11.4495   -6.5840    0.0000 C   0  0
   11.4495   -7.4018    0.0000 C   0  0
  2  1  1  0
  3  5  1  0
  4  3  2  0
  5  2  1  0
  6  1  1  0
  7  2  2  0
  8  4  1  0
  9  4  1  0
 10  6  1  0
 11  1  2  0
 12  6  2  0
 13  8  1  0
 14  8  2  0
 15 11  1  0
 16 15  2  0
 17 13  2  0
 18 14  1  0
 19 18  2  0
 16 12  1  0
 17 19  1  0
M  END
> <COMPOUND_ID>
DNDI1417340

$$$$

  SciTegic04051205032D

 21 23  0  0  0  0            999 V2000
   10.9837   -6.2872    0.0000 C   0  0
   11.7657   -5.2647    0.0000 N   0  0
   10.9837   -5.5051    0.0000 C   0  0
   11.7657   -6.5478    0.0000 C   0  0
    6.4297   -6.6578    0.0000 C   0  0
   12.1893   -5.9165    0.0000 C   0  0
    5.7170   -6.2505    0.0000 C   0  0
    7.1467   -6.2505    0.0000 C   0  0
    7.1467   -5.4196    0.0000 C   0  0
    5.7170   -5.4196    0.0000 C   0  0
    6.4297   -7.4725    0.0000 Cl  0  0
   10.2994   -6.7230    0.0000 C   0  0
    6.4297   -5.0000    0.0000 C   0  0
    9.2810   -6.6578    0.0000 N   0  0
    5.0000   -5.0122    0.0000 Cl  0  0
   12.0793   -7.3054    0.0000 C   0  0
    7.8554   -6.6578    0.0000 C   0  0
   13.0284   -5.9776    0.0000 C   0  0
    8.5723   -6.2505    0.0000 C   0  0
   12.8940   -7.3665    0.0000 C   0  0
   13.3910   -6.6944    0.0000 C   0  0
  2  3  1  0
  3  1  2  0
  4  1  1  0
  5  8  1  0
  6  4  2  0
  7  5  2  0
  8 17  1  0
  9  8  2  0
 10 13  2  0
 11  5  1  0
 12  1  1  0
 13  9  1  0
 14 12  1  0
 15 10  1  0
 16  4  1  0
 17 19  1  0
 18  6  1  0
 19 14  1  0
 20 16  2  0
 21 20  1  0
  2  6  1  0
 21 18  2  0
 10  7  1  0
M  END
> <COMPOUND_ID>
DNDI1417341

$$$$

  SciTegic04051205032D

 24 27  0  0  0  0            999 V2000
    7.0829   -7.2547    0.0000 C   0  0
    7.0829   -6.4574    0.0000 N   0  0
    5.6978   -6.4574    0.0000 N   0  0
    6.3886   -7.6638    0.0000 C   0  0
    7.7704   -7.6535    0.0000 N   0  0
    7.7704   -6.0449    0.0000 C   0  0
    5.6978   -7.2547    0.0000 C   0  0
    8.4646   -6.4574    0.0000 C   0  0
    8.4646   -7.2547    0.0000 C   0  0
    9.1624   -7.6603    0.0000 C   0  0
    6.3886   -8.4611    0.0000 C   0  0
    7.7704   -5.2475    0.0000 O   0  0
    9.1555   -8.4611    0.0000 C   0  0
    9.8533   -7.2547    0.0000 C   0  0
   10.5578   -8.4611    0.0000 C   0  0
    5.0000   -7.6535    0.0000 C   0  0
   10.5510   -7.6535    0.0000 C   0  0
    9.8533   -8.8702    0.0000 C   0  0
   11.2728   -8.8805    0.0000 F   0  0
    5.6978   -8.8599    0.0000 C   0  0
    7.0829   -8.8599    0.0000 C   0  0
    7.0864   -9.6572    0.0000 C   0  0
    5.6978   -9.6676    0.0000 C   0  0
    6.3955  -10.0697    0.0000 C   0  0
  2  1  1  0
  3  2  1  0
  4  1  2  0
  5  1  1  0
  6  2  1  0
  7  4  1  0
  8  9  2  0
  9  5  1  0
 10  9  1  0
 11  4  1  0
 12  6  2  0
 13 10  2  0
 14 10  1  0
 15 17  1  0
 16  7  1  0
 17 14  2  0
 18 13  1  0
 19 15  1  0
 20 11  2  0
 21 11  1  0
 22 21  2  0
 23 20  1  0
 24 22  1  0
  3  7  2  0
  8  6  1  0
 18 15  2  0
 23 24  2  0
M  END
> <COMPOUND_ID>
DNDI1417342

$$$$

  SciTegic04051205032D

 24 26  0  0  0  0            999 V2000
    6.4302   -9.8069    0.0000 C   0  0
    6.4302   -8.9789    0.0000 C   0  0
    7.8532   -7.3121    0.0000 N   0  0
    8.5809   -6.0718    0.0000 C   0  0
    5.7241  -10.2155    0.0000 N   0  0
    7.1507   -8.5666    0.0000 C   0  0
    7.1507  -10.2155    0.0000 C   0  0
    7.8532   -6.4841    0.0000 N   0  0
    8.5809   -5.2475    0.0000 O   0  0
    7.8748   -8.9789    0.0000 C   0  0
    7.8748   -9.8069    0.0000 C   0  0
    7.1507   -7.7207    0.0000 C   0  0
    9.2942   -6.4733    0.0000 C   0  0
    7.1507  -11.0435    0.0000 O   0  0
    9.9932   -6.0647    0.0000 C   0  0
   10.7029   -6.4626    0.0000 C   0  0
    5.7241   -8.5666    0.0000 C   0  0
    5.0000   -9.8069    0.0000 C   0  0
   10.7136   -7.2906    0.0000 C   0  0
   11.4197   -6.0647    0.0000 C   0  0
    5.0000   -8.9789    0.0000 C   0  0
   12.1223   -6.4626    0.0000 C   0  0
   11.4197   -7.6992    0.0000 C   0  0
   12.1402   -7.2906    0.0000 C   0  0
  2  1  1  0
  3 12  2  0
  4  8  1  0
  5  1  1  0
  6  2  2  0
  7  1  2  0
  8  3  1  0
  9  4  2  0
 10 11  2  0
 11  7  1  0
 12  6  1  0
 13  4  1  0
 14  7  1  0
 15 13  1  0
 16 15  1  0
 17  2  1  0
 18  5  2  0
 19 16  2  0
 20 16  1  0
 21 18  1  0
 22 20  2  0
 23 19  1  0
 24 22  1  0
 10  6  1  0
 21 17  2  0
 24 23  2  0
M  END
> <COMPOUND_ID>
DNDI1417343

$$$$

  SciTegic04051205032D

 23 24  0  0  0  0            999 V2000
   10.0052   -6.6490    0.0000 C   0  0
    7.1391   -6.6656    0.0000 C   0  0
    7.8577   -6.2462    0.0000 C   0  0
    9.2991   -6.2420    0.0000 C   0  0
    8.5721   -6.6574    0.0000 C   0  0
    7.1349   -7.4881    0.0000 C   0  0
    6.4288   -6.2586    0.0000 C   0  0
   10.7196   -6.2295    0.0000 F   0  0
    9.4237   -7.2264    0.0000 F   0  0
   10.0052   -7.4756    0.0000 F   0  0
    7.1267   -9.1205    0.0000 N   0  0
    6.4164   -7.8910    0.0000 C   0  0
    7.8494   -5.4195    0.0000 C   0  0
    9.2866   -5.4113    0.0000 C   0  0
    8.5680   -5.0000    0.0000 C   0  0
    6.4164   -8.7135    0.0000 C   0  0
    5.7103   -6.6656    0.0000 C   0  0
    6.4164   -5.4237    0.0000 C   0  0
    7.1267   -9.9471    0.0000 C   0  0
    7.8369   -8.7135    0.0000 C   0  0
    5.7103   -5.0125    0.0000 C   0  0
    5.0000   -6.2502    0.0000 C   0  0
    5.0000   -5.4237    0.0000 C   0  0
  2  3  1  0
  3  5  1  0
  4  1  1  0
  5  4  2  0
  6  2  2  0
  7  2  1  0
  8  1  1  0
  9  1  1  0
 10  1  1  0
 11 16  1  0
 12  6  1  0
 13 15  1  0
 14  4  1  0
 15 14  2  0
 16 12  1  0
 17  7  2  0
 18  7  1  0
 19 11  1  0
 20 11  1  0
 21 18  2  0
 22 17  1  0
 23 21  1  0
 13  3  2  0
 23 22  2  0
M  END
> <COMPOUND_ID>
DNDI1417344

$$$$

  SciTegic04051205032D

 22 25  0  0  0  0            999 V2000
    7.0593   -9.3662    0.0000 N   0  0
    7.5441  -10.0366    0.0000 C   0  0
    7.3928   -8.6099    0.0000 C   0  0
    8.2145   -8.5308    0.0000 C   0  0
    6.2686   -9.6172    0.0000 C   0  0
    7.0559  -10.7036    0.0000 S   0  0
    8.3589   -9.9541    0.0000 N   0  0
    6.2686  -10.4458    0.0000 C   0  0
    8.7027   -9.2012    0.0000 C   0  0
    8.5617   -7.7778    0.0000 C   0  0
    9.3799   -7.6953    0.0000 N   0  0
    6.9081   -7.9463    0.0000 O   0  0
    8.0770   -7.1041    0.0000 O   0  0
    8.4139   -6.2720    0.0000 O   0  0
    9.7203   -6.9390    0.0000 C   0  0
    5.4882   -9.3662    0.0000 C   0  0
    5.4848  -10.6967    0.0000 C   0  0
    9.2390   -6.2823    0.0000 C   0  0
    5.0000  -10.0297    0.0000 C   0  0
    8.1732   -5.4813    0.0000 C   0  0
    9.4934   -5.5019    0.0000 C   0  0
    8.8299   -5.0000    0.0000 C   0  0
  2  1  1  0
  3  1  1  0
  4  3  1  0
  5  1  1  0
  6  2  1  0
  7  2  2  0
  8  5  2  0
  9  4  2  0
 10  4  1  0
 11 10  1  0
 12  3  2  0
 13 10  2  0
 14 18  1  0
 15 11  1  0
 16  5  1  0
 17  8  1  0
 18 15  1  0
 19 16  1  0
 20 14  1  0
 21 18  1  0
 22 21  1  0
  6  8  1  0
 17 19  1  0
  9  7  1  0
 20 22  1  0
M  END
> <COMPOUND_ID>
DNDI1417345

$$$$

  SciTegic04051205032D

 24 27  0  0  0  0            999 V2000
    7.1278   -7.2451    0.0000 C   0  0
    7.8421   -7.6483    0.0000 N   0  0
    6.4185   -7.6483    0.0000 C   0  0
    7.8421   -8.4544    0.0000 N   0  0
    7.1278   -8.8576    0.0000 C   0  0
    6.4185   -8.4544    0.0000 C   0  0
    5.7042   -7.2451    0.0000 C   0  0
    6.9236   -6.4236    0.0000 C   0  0
    5.8879   -6.4236    0.0000 C   0  0
    8.5514   -8.8576    0.0000 C   0  0
    7.1278   -9.6791    0.0000 O   0  0
    8.5514   -9.6791    0.0000 C   0  0
    9.2556  -10.0822    0.0000 N   0  0
    5.7042   -8.8576    0.0000 C   0  0
    5.0000   -7.6483    0.0000 C   0  0
    7.2298   -5.7143    0.0000 C   0  0
    5.5766   -5.7143    0.0000 C   0  0
    5.0000   -8.4544    0.0000 C   0  0
    9.9903   -9.6791    0.0000 C   0  0
    9.3117  -10.9394    0.0000 C   0  0
    6.8063   -5.0000    0.0000 C   0  0
    5.9899   -5.0000    0.0000 C   0  0
   10.7047  -10.0669    0.0000 C   0  0
   10.0057  -11.3323    0.0000 C   0  0
  2  1  2  0
  3  1  1  0
  4  2  1  0
  5  6  1  0
  6  3  1  0
  7  3  2  0
  8  1  1  0
  9  8  2  0
 10  4  1  0
 11  5  2  0
 12 10  1  0
 13 12  1  0
 14  6  2  0
 15  7  1  0
 16  8  1  0
 17  9  1  0
 18 15  2  0
 19 13  1  0
 20 13  1  0
 21 16  2  0
 22 21  1  0
 23 19  1  0
 24 20  1  0
  9  7  1  0
  5  4  1  0
 22 17  2  0
 14 18  1  0
M  END
> <COMPOUND_ID>
DNDI1417346

$$$$

  SciTegic04051205032D

 24 26  0  0  0  0            999 V2000
    9.2825   -7.9109    0.0000 C   0  0
    7.8618   -7.9109    0.0000 C   0  0
    8.5777   -9.1349    0.0000 N   0  0
    8.5777   -7.4970    0.0000 C   0  0
    7.8618   -8.7321    0.0000 C   0  0
    9.2825   -8.7321    0.0000 C   0  0
   10.0008   -7.4836    0.0000 C   0  0
    7.1480   -7.4903    0.0000 C   0  0
    8.5777   -6.6781    0.0000 O   0  0
    6.4365   -8.7187    0.0000 N   0  0
   10.7056   -6.2351    0.0000 N   0  0
    8.5777   -9.9605    0.0000 C   0  0
    9.9941   -6.6513    0.0000 C   0  0
    6.4365   -7.8998    0.0000 C   0  0
    5.7249   -9.1326    0.0000 C   0  0
   10.7011   -5.4139    0.0000 C   0  0
    7.8685  -10.3744    0.0000 C   0  0
    9.2892  -10.3744    0.0000 C   0  0
    5.7205   -7.4769    0.0000 C   0  0
    9.2691   -6.2530    0.0000 C   0  0
    9.9806   -5.0000    0.0000 C   0  0
    5.0000   -8.7187    0.0000 C   0  0
    9.2647   -5.4296    0.0000 C   0  0
    5.0090   -7.8863    0.0000 C   0  0
  2  4  1  0
  3  6  1  0
  4  1  1  0
  5  3  1  0
  6  1  1  0
  7  1  2  0
  8  2  2  0
  9  4  2  0
 10 14  1  0
 11 13  2  0
 12  3  1  0
 13  7  1  0
 14  8  1  0
 15 10  2  0
 16 11  1  0
 17 12  1  0
 18 12  1  0
 19 14  2  0
 20 13  1  0
 21 23  1  0
 22 24  2  0
 23 20  2  0
 24 19  1  0
  2  5  1  0
 16 21  2  0
 15 22  1  0
M  END
> <COMPOUND_ID>
DNDI1417347

$$$$

  SciTegic04051205032D

 24 27  0  0  0  0            999 V2000
    9.4695   -8.3875    0.0000 C   0  0
   10.2301   -8.0922    0.0000 N   0  0
    9.5191   -9.2190    0.0000 N   0  0
    8.7324   -8.0237    0.0000 N   0  0
   10.3175   -9.4198    0.0000 C   0  0
   10.7545   -8.7300    0.0000 C   0  0
    8.6805   -7.1993    0.0000 C   0  0
    5.7299   -5.7134    0.0000 C   0  0
    6.4694   -6.0843    0.0000 C   0  0
    8.8340   -9.6726    0.0000 C   0  0
    6.5261   -6.9158    0.0000 C   0  0
    7.1639   -5.6331    0.0000 C   0  0
    8.0426   -8.4725    0.0000 C   0  0
    7.9410   -6.8237    0.0000 C   0  0
    8.0899   -9.3065    0.0000 C   0  0
    7.2631   -7.2772    0.0000 C   0  0
    7.9033   -6.0040    0.0000 C   0  0
   10.6955  -10.1569    0.0000 C   0  0
   11.5814   -8.7608    0.0000 C   0  0
    5.3189   -6.4292    0.0000 C   0  0
    6.1434   -5.0000    0.0000 C   0  0
    5.0000   -5.3520    0.0000 C   0  0
   11.5223  -10.1994    0.0000 C   0  0
   11.9570   -9.5001    0.0000 C   0  0
  2  1  2  0
  3  1  1  0
  4  1  1  0
  5  3  1  0
  6  2  1  0
  7  4  1  0
  8  9  1  0
  9 12  2  0
 10  3  1  0
 11 16  2  0
 12 17  1  0
 13  4  1  0
 14  7  1  0
 15 13  1  0
 16 14  1  0
 17 14  2  0
 18  5  2  0
 19  6  2  0
 20  8  1  0
 21  8  1  0
 22  8  1  0
 23 18  1  0
 24 19  1  0
  6  5  1  0
 15 10  1  0
 24 23  2  0
  9 11  1  0
M  END
> <COMPOUND_ID>
DNDI1417348

$$$$

  SciTegic04051205032D

 24 27  0  0  0  0            999 V2000
    7.1362   -9.3180    0.0000 C   0  0
    7.1362   -8.4910    0.0000 C   0  0
    7.8427   -9.7295    0.0000 N   0  0
    7.8427   -8.0713    0.0000 C   0  0
    6.4131   -9.7295    0.0000 C   0  0
    8.5575   -8.4827    0.0000 C   0  0
    6.4131   -8.0713    0.0000 C   0  0
    8.5700   -9.3180    0.0000 C   0  0
    9.6505   -6.0141    0.0000 N   0  0
    5.7107   -9.3180    0.0000 C   0  0
    5.6982   -8.4910    0.0000 C   0  0
    7.8427   -7.2567    0.0000 N   0  0
    8.6406   -7.0364    0.0000 C   0  0
    8.8526   -6.2385    0.0000 C   0  0
    6.4131  -10.5482    0.0000 C   0  0
    9.8542   -5.2161    0.0000 C   0  0
   10.2365   -6.5959    0.0000 C   0  0
    9.2807   -9.7295    0.0000 C   0  0
    5.0000   -9.7295    0.0000 C   0  0
   10.6521   -5.0000    0.0000 C   0  0
   11.0469   -6.3756    0.0000 C   0  0
    5.7149  -10.9638    0.0000 C   0  0
    5.0125  -10.5524    0.0000 C   0  0
   11.2464   -5.5777    0.0000 C   0  0
  2  1  1  0
  3  1  1  0
  4  2  1  0
  5  1  2  0
  6  8  1  0
  7  2  2  0
  8  3  2  0
  9 14  1  0
 10  5  1  0
 11 10  2  0
 12  4  1  0
 13 12  1  0
 14 13  1  0
 15  5  1  0
 16  9  1  0
 17  9  1  0
 18  8  1  0
 19 10  1  0
 20 16  1  0
 21 17  1  0
 22 15  2  0
 23 22  1  0
 24 21  1  0
 11  7  1  0
  6  4  2  0
 23 19  2  0
 20 24  1  0
M  END
> <COMPOUND_ID>
DNDI1417349

$$$$

  SciTegic04051205032D

 24 27  0  0  0  0            999 V2000
    9.3312   -6.9078    0.0000 C   0  0
    8.8603   -5.7357    0.0000 N   0  0
    8.6574   -6.5160    0.0000 C   0  0
    9.9500   -6.3579    0.0000 C   0  0
    8.6025   -8.1935    0.0000 N   0  0
    9.3312   -7.7638    0.0000 C   0  0
    7.1278   -9.1078    0.0000 N   0  0
    9.6165   -5.7013    0.0000 C   0  0
    6.3750   -9.5238    0.0000 C   0  0
    6.3750  -10.3831    0.0000 C   0  0
    8.6059   -9.0563    0.0000 C   0  0
    7.8256   -7.7913    0.0000 C   0  0
    7.0866   -8.2313    0.0000 C   0  0
    7.8806   -9.5032    0.0000 C   0  0
    5.6738  -10.7991    0.0000 C   0  0
    5.6738  -11.6034    0.0000 C   0  0
   10.7818   -6.4644    0.0000 C   0  0
    7.0763  -11.6034    0.0000 C   0  0
    7.0831  -10.7750    0.0000 C   0  0
   10.0840   -5.0000    0.0000 C   0  0
    6.3715  -12.0159    0.0000 C   0  0
    5.0000  -12.0194    0.0000 C   0  0
   11.2252   -5.7941    0.0000 C   0  0
   10.8849   -5.0654    0.0000 C   0  0
  2  3  1  0
  3  1  2  0
  4  1  1  0
  5  6  1  0
  6  1  1  0
  7 13  1  0
  8  4  2  0
  9  7  1  0
 10  9  1  0
 11  5  1  0
 12  5  1  0
 13 12  1  0
 14 11  1  0
 15 10  1  0
 16 15  2  0
 17  4  1  0
 18 19  1  0
 19 10  2  0
 20  8  1  0
 21 18  2  0
 22 16  1  0
 23 17  2  0
 24 23  1  0
  2  8  1  0
 14  7  1  0
 20 24  2  0
 21 16  1  0
M  END
> <COMPOUND_ID>
DNDI1417350

$$$$

  SciTegic04051205032D

 22 23  0  0  0  0            999 V2000
   12.3824   -7.0174    0.0000 C   0  0
   12.3824   -6.2269    0.0000 C   0  0
   11.6985   -7.4504    0.0000 C   0  0
   11.6985   -5.8110    0.0000 C   0  0
   10.9904   -7.0174    0.0000 C   0  0
    6.4229   -7.3164    0.0000 C   0  0
    5.7149   -6.9005    0.0000 C   0  0
   10.9904   -6.2269    0.0000 C   0  0
   13.0869   -7.4745    0.0000 O   0  0
    9.2858   -7.3164    0.0000 N   0  0
    5.0000   -7.3301    0.0000 Cl  0  0
   13.0869   -5.7836    0.0000 O   0  0
    7.1412   -6.9005    0.0000 C   0  0
    6.4229   -5.6529    0.0000 C   0  0
   10.3031   -7.3851    0.0000 C   0  0
    5.7149   -6.0722    0.0000 C   0  0
    8.5709   -6.9005    0.0000 C   0  0
    7.1412   -6.0722    0.0000 C   0  0
    7.8526   -7.3164    0.0000 C   0  0
   13.0869   -8.2752    0.0000 C   0  0
   13.0869   -5.0000    0.0000 C   0  0
   13.7881   -8.6602    0.0000 C   0  0
  2  1  1  0
  3  1  2  0
  4  2  2  0
  5  3  1  0
  6 13  1  0
  7  6  2  0
  8  5  2  0
  9  1  1  0
 10 15  1  0
 11  7  1  0
 12  2  1  0
 13 19  1  0
 14 18  1  0
 15  5  1  0
 16 14  2  0
 17 10  1  0
 18 13  2  0
 19 17  1  0
 20  9  1  0
 21 12  1  0
 22 20  1  0
  8  4  1  0
  7 16  1  0
M  END
> <COMPOUND_ID>
DNDI1417351

$$$$

  SciTegic04051205032D

 21 23  0  0  0  0            999 V2000
   12.1141   -6.4345    0.0000 C   0  0
    8.2584   -5.7285    0.0000 N   0  0
    9.8875   -5.7150    0.0000 N   0  0
   11.7204   -5.7195    0.0000 C   0  0
   10.7021   -5.7150    0.0000 N   0  0
   11.7475   -7.0590    0.0000 C   0  0
   12.8472   -6.4391    0.0000 S   0  0
    7.4438   -5.7285    0.0000 C   0  0
   13.2002   -7.0772    0.0000 C   0  0
   12.8336   -7.7017    0.0000 C   0  0
    8.6657   -6.4255    0.0000 C   0  0
    8.6657   -5.0136    0.0000 C   0  0
    9.4893   -6.4255    0.0000 C   0  0
    9.4802   -5.0000    0.0000 C   0  0
    7.0319   -5.0271    0.0000 C   0  0
    7.0365   -6.4391    0.0000 C   0  0
    5.8146   -5.7331    0.0000 C   0  0
    6.2219   -6.4391    0.0000 C   0  0
    6.2173   -5.0271    0.0000 C   0  0
    5.0000   -5.7421    0.0000 Cl  0  0
   11.0415   -7.2401    0.0000 C   0  0
  2 12  1  0
  3  5  1  0
  4  1  1  0
  5  4  2  0
  6  1  2  0
  7  1  1  0
  8  2  1  0
  9  7  1  0
 10  6  1  0
 11 13  1  0
 12 14  1  0
 13  3  1  0
 14  3  1  0
 15  8  1  0
 16  8  2  0
 17 18  2  0
 18 16  1  0
 19 15  2  0
 20 17  1  0
 21  6  1  0
  9 10  2  0
 11  2  1  0
 17 19  1  0
M  END
> <COMPOUND_ID>
DNDI1417352

$$$$

  SciTegic04051205032D

 19 20  0  0  0  0            999 V2000
    9.6568   -6.5846    0.0000 N   0  0
    8.1631   -6.6345    0.0000 C   0  0
   10.3651   -6.1850    0.0000 C   0  0
    8.9485   -6.1850    0.0000 O   0  0
    7.4548   -6.2168    0.0000 C   0  0
    6.7466   -6.6345    0.0000 C   0  0
    8.1495   -7.5244    0.0000 O   0  0
   12.4809   -7.4018    0.0000 N   0  0
   11.0734   -6.5846    0.0000 C   0  0
   10.3651   -5.3678    0.0000 N   0  0
    6.0383   -6.2032    0.0000 C   0  0
    5.3300   -6.6209    0.0000 Br  0  0
    7.4548   -5.3996    0.0000 C   0  0
    6.7602   -5.0000    0.0000 C   0  0
   12.4899   -6.5846    0.0000 C   0  0
   11.7816   -7.8195    0.0000 C   0  0
   11.7816   -6.1850    0.0000 C   0  0
   11.0734   -7.4018    0.0000 C   0  0
    6.0383   -5.3860    0.0000 C   0  0
  2  4  1  0
  3  1  2  0
  4  1  1  0
  5  2  1  0
  6  5  1  0
  7  2  2  0
  8 16  1  0
  9  3  1  0
 10  3  1  0
 11  6  2  0
 12 11  1  0
 13  5  2  0
 14 13  1  0
 15 17  1  0
 16 18  2  0
 17  9  2  0
 18  9  1  0
 19 14  2  0
 15  8  2  0
 11 19  1  0
M  END
> <COMPOUND_ID>
DNDI1417353

$$$$

  SciTegic04051205032D

 19 20  0  0  0  0            999 V2000
    7.1479   -6.6463    0.0000 C   0  0
    9.2876   -6.2233    0.0000 C   0  0
    7.8612   -6.2316    0.0000 N   0  0
    8.5785   -6.6463    0.0000 N   0  0
   10.0009   -6.6421    0.0000 C   0  0
    6.4306   -6.2358    0.0000 C   0  0
    5.7173   -6.6463    0.0000 N   0  0
    7.1479   -7.4756    0.0000 O   0  0
    9.2793   -5.4023    0.0000 O   0  0
   10.0009   -7.4673    0.0000 C   0  0
   10.7182   -7.8737    0.0000 C   0  0
   10.7099   -8.6947    0.0000 Br  0  0
   10.7099   -6.2233    0.0000 C   0  0
   11.4273   -6.6338    0.0000 C   0  0
    5.0000   -6.2358    0.0000 C   0  0
    6.4264   -5.4023    0.0000 C   0  0
   11.4315   -7.4549    0.0000 C   0  0
    5.0000   -5.4147    0.0000 C   0  0
    5.7091   -5.0000    0.0000 C   0  0
  2  4  1  0
  3  1  1  0
  4  3  1  0
  5  2  1  0
  6  1  1  0
  7  6  2  0
  8  1  2  0
  9  2  2  0
 10  5  2  0
 11 10  1  0
 12 11  1  0
 13  5  1  0
 14 13  2  0
 15  7  1  0
 16  6  1  0
 17 14  1  0
 18 19  1  0
 19 16  2  0
 15 18  2  0
 17 11  2  0
M  END
> <COMPOUND_ID>
DNDI1417354

$$$$

  SciTegic04051205032D

 19 22  0  0  0  0            999 V2000
    7.6228   -6.1078    0.0000 C   0  0
    6.0955   -6.1078    0.0000 C   0  0
    6.9427   -6.4173    0.0000 C   0  0
    8.4333   -6.1078    0.0000 C   0  0
    7.0730   -6.7961    0.0000 C   0  0
    7.6228   -5.3625    0.0000 C   0  0
    6.3562   -6.4865    0.0000 C   0  0
    6.9182   -5.0000    0.0000 C   0  0
    6.0955   -5.3258    0.0000 C   0  0
    5.5091   -6.7961    0.0000 C   0  0
    6.3562   -5.6679    0.0000 C   0  0
    8.8731   -6.8083    0.0000 C   0  0
    8.8446   -5.3910    0.0000 C   0  0
   10.1030   -6.0752    0.0000 C   0  0
    5.3543   -6.1078    0.0000 C   0  0
    9.7039   -6.8083    0.0000 C   0  0
    9.6551   -5.4032    0.0000 C   0  0
   10.9257   -6.0874    0.0000 Br  0  0
    5.0000   -5.3625    0.0000 N   0  0
  2  3  1  0
  3  1  1  0
  4  1  1  0
  5  1  1  0
  6  1  1  0
  7  5  1  0
  8  6  1  0
  9  8  1  0
 10  7  1  0
 11  8  1  0
 12  4  2  0
 13  4  1  0
 14 17  1  0
 15  2  1  0
 16 12  1  0
 17 13  2  0
 18 14  1  0
 19 15  1  0
 11  7  1  0
  9  2  1  0
 10  2  1  0
 14 16  2  0
M  END
> <COMPOUND_ID>
DNDI1417355

$$$$

  SciTegic04051205032D

 24 26  0  0  0  0            999 V2000
   10.3138   -7.8468    0.0000 C   0  0
    9.6600   -8.2691    0.0000 C   0  0
    6.9039   -7.1249    0.0000 C   0  0
   11.0630   -8.1919    0.0000 C   0  0
    8.1571   -7.8468    0.0000 N   0  0
    6.5226   -7.8332    0.0000 C   0  0
    8.9744   -7.8468    0.0000 N   0  0
    6.4454   -6.4166    0.0000 C   0  0
    9.6827   -9.1182    0.0000 O   0  0
    7.7258   -7.1249    0.0000 C   0  0
    5.7099   -7.8786    0.0000 C   0  0
   11.7577   -7.7696    0.0000 C   0  0
    5.6281   -6.4484    0.0000 C   0  0
    5.2740   -7.1794    0.0000 C   0  0
    6.9584   -8.5551    0.0000 O   0  0
   10.2866   -7.0295    0.0000 C   0  0
    5.1650   -5.7537    0.0000 O   0  0
   11.0993   -9.0092    0.0000 C   0  0
   10.9903   -6.5574    0.0000 C   0  0
   11.7395   -6.9388    0.0000 C   0  0
   12.4932   -8.1374    0.0000 C   0  0
    5.5282   -5.0000    0.0000 C   0  0
   11.8258   -9.4042    0.0000 C   0  0
   12.5341   -8.9683    0.0000 C   0  0
  2  1  1  0
  3 10  1  0
  4  1  2  0
  5  7  1  0
  6  3  1  0
  7  2  1  0
  8  3  2  0
  9  2  2  0
 10  5  2  0
 11  6  2  0
 12  4  1  0
 13  8  1  0
 14 13  2  0
 15  6  1  0
 16  1  1  0
 17 13  1  0
 18  4  1  0
 19 16  2  0
 20 19  1  0
 21 12  1  0
 22 17  1  0
 23 18  2  0
 24 23  1  0
 12 20  2  0
 21 24  2  0
 14 11  1  0
M  END
> <COMPOUND_ID>
DNDI1417356

$$$$

  SciTegic04051205032D

 22 23  0  0  0  0            999 V2000
    7.0232   -7.4773    0.0000 C   0  0
    6.3075   -7.0736    0.0000 C   0  0
    8.4683   -7.4773    0.0000 N   0  0
    5.5597   -7.4085    0.0000 S   0  0
    7.7389   -7.0736    0.0000 O   0  0
    9.1840   -7.0736    0.0000 C   0  0
   12.0330   -7.0736    0.0000 C   0  0
    7.0232   -8.3169    0.0000 O   0  0
    6.2203   -6.2524    0.0000 C   0  0
   12.0330   -6.2478    0.0000 C   0  0
   11.3173   -7.4773    0.0000 C   0  0
    5.0000   -6.8029    0.0000 C   0  0
   10.6016   -7.0736    0.0000 C   0  0
    5.4083   -6.0873    0.0000 C   0  0
    9.8997   -7.4773    0.0000 C   0  0
   11.3173   -5.8258    0.0000 C   0  0
    9.1931   -6.2478    0.0000 N   0  0
   10.6016   -6.2478    0.0000 C   0  0
   12.7487   -7.4773    0.0000 O   0  0
   12.7487   -5.8258    0.0000 O   0  0
   13.4644   -7.0736    0.0000 C   0  0
   12.7487   -5.0000    0.0000 C   0  0
  2  1  1  0
  3  5  1  0
  4  2  1  0
  5  1  1  0
  6  3  2  0
  7 11  2  0
  8  1  2  0
  9  2  2  0
 10 16  2  0
 11 13  1  0
 12  4  1  0
 13 15  1  0
 14  9  1  0
 15  6  1  0
 16 18  1  0
 17  6  1  0
 18 13  2  0
 19  7  1  0
 20 10  1  0
 21 19  1  0
 22 20  1  0
 12 14  2  0
  7 10  1  0
M  END
> <COMPOUND_ID>
DNDI1417357

$$$$

  SciTegic04051205032D

 22 23  0  0  0  0            999 V2000
    8.5465   -6.9070    0.0000 C   0  0
    7.8372   -6.4887    0.0000 C   0  0
   10.0423   -6.8570    0.0000 N   0  0
   11.4609   -6.8570    0.0000 C   0  0
   10.7516   -6.4569    0.0000 C   0  0
   12.1702   -6.4569    0.0000 C   0  0
   12.9114   -6.7842    0.0000 S   0  0
    7.1279   -6.9070    0.0000 C   0  0
    9.3331   -6.4569    0.0000 O   0  0
    6.4186   -6.4751    0.0000 C   0  0
    6.4186   -5.6567    0.0000 C   0  0
   13.4570   -6.1841    0.0000 C   0  0
   12.2430   -5.6384    0.0000 C   0  0
    8.5329   -7.7982    0.0000 O   0  0
    7.8372   -5.6703    0.0000 C   0  0
   13.0569   -5.4748    0.0000 C   0  0
    7.1415   -5.2702    0.0000 C   0  0
   10.7516   -5.6384    0.0000 N   0  0
    5.7093   -6.8934    0.0000 O   0  0
    5.7093   -5.2475    0.0000 O   0  0
    5.6957   -7.7118    0.0000 C   0  0
    5.0000   -5.6521    0.0000 C   0  0
  2  1  1  0
  3  9  1  0
  4  5  1  0
  5  3  2  0
  6  4  1  0
  7  6  1  0
  8  2  1  0
  9  1  1  0
 10  8  2  0
 11 17  2  0
 12  7  1  0
 13  6  2  0
 14  1  2  0
 15  2  2  0
 16 13  1  0
 17 15  1  0
 18  5  1  0
 19 10  1  0
 20 11  1  0
 21 19  1  0
 22 20  1  0
 11 10  1  0
 12 16  2  0
M  END
> <COMPOUND_ID>
DNDI1417358

$$$$

  SciTegic04051205032D

 24 27  0  0  0  0            999 V2000
    7.1656   -9.9638    0.0000 C   0  0
    7.1656  -10.7961    0.0000 C   0  0
    7.8535   -9.5562    0.0000 C   0  0
    7.8662  -11.2038    0.0000 N   0  0
    6.4734  -11.2038    0.0000 C   0  0
    7.8535   -8.7197    0.0000 N   0  0
    8.5668   -9.9638    0.0000 C   0  0
    8.5796   -6.6561    0.0000 C   0  0
    8.5796   -7.4968    0.0000 C   0  0
    6.4267   -9.5562    0.0000 C   0  0
    8.5668  -10.7961    0.0000 C   0  0
    7.8535   -6.2484    0.0000 C   0  0
    7.8535   -7.9045    0.0000 C   0  0
    5.7643  -10.7961    0.0000 C   0  0
    9.2929   -6.2484    0.0000 O   0  0
    7.8364   -5.4289    0.0000 O   0  0
    5.7388   -9.9638    0.0000 C   0  0
    7.1358   -6.6688    0.0000 C   0  0
    7.1358   -7.4968    0.0000 C   0  0
    6.4607  -12.0063    0.0000 C   0  0
    9.2929   -5.4077    0.0000 C   0  0
    8.5668   -5.0000    0.0000 C   0  0
    9.2802  -11.2038    0.0000 C   0  0
    5.0000   -9.5605    0.0000 C   0  0
  2  1  1  0
  3  1  1  0
  4  2  1  0
  5  2  2  0
  6  3  1  0
  7  3  2  0
  8  9  2  0
  9 13  1  0
 10  1  2  0
 11  7  1  0
 12 18  2  0
 13  6  1  0
 14 17  2  0
 15  8  1  0
 16 12  1  0
 17 10  1  0
 18 19  1  0
 19 13  2  0
 20  5  1  0
 21 15  1  0
 22 16  1  0
 23 11  1  0
 24 17  1  0
  5 14  1  0
 11  4  2  0
  8 12  1  0
 21 22  1  0
M  END
> <COMPOUND_ID>
DNDI1417359

$$$$

  SciTegic04051205032D

 24 27  0  0  0  0            999 V2000
    7.1578   -6.5738    0.0000 C   0  0
    5.7508   -6.5851    0.0000 N   0  0
    6.4655   -6.1770    0.0000 C   0  0
    7.8815   -6.1657    0.0000 C   0  0
    8.5782   -6.5941    0.0000 C   0  0
    9.8792   -6.6617    0.0000 C   0  0
    5.7350   -7.3787    0.0000 C   0  0
    7.1578   -7.3720    0.0000 C   0  0
    9.1667   -6.2514    0.0000 C   0  0
    6.4408   -7.7801    0.0000 N   0  0
    9.9784   -7.4915    0.0000 O   0  0
   10.5556   -6.2717    0.0000 C   0  0
   10.8284   -7.6403    0.0000 C   0  0
    8.5715   -7.3990    0.0000 C   0  0
   11.1914   -6.8444    0.0000 C   0  0
    7.8612   -7.7914    0.0000 C   0  0
    6.4678   -5.3134    0.0000 N   0  0
    5.0000   -7.8116    0.0000 N   0  0
    7.8815   -5.3066    0.0000 C   0  0
    9.1622   -5.4081    0.0000 C   0  0
   10.5669   -5.4216    0.0000 C   0  0
    9.8589   -5.0000    0.0000 C   0  0
   11.6424   -7.9266    0.0000 C   0  0
   10.6097   -8.4768    0.0000 C   0  0
  2  3  2  0
  3  1  1  0
  4  1  1  0
  5  4  2  0
  6  9  1  0
  7  2  1  0
  8  1  2  0
  9  5  1  0
 10  8  1  0
 11  6  1  0
 12  6  2  0
 13 11  1  0
 14 16  2  0
 15 12  1  0
 16  8  1  0
 17  3  1  0
 18  7  1  0
 19  4  1  0
 20  9  2  0
 21 22  2  0
 22 20  1  0
 23 13  1  0
 24 13  1  0
  7 10  2  0
 14  5  1  0
 21 12  1  0
 13 15  1  0
M  END
> <COMPOUND_ID>
DNDI1417360

$$$$

  SciTegic04051205032D

 22 23  0  0  0  0            999 V2000
   10.6063   -7.0291    0.0000 C   0  0
   10.0554   -7.6352    0.0000 O   0  0
    7.1489   -6.0740    0.0000 C   0  0
   10.1840   -6.3128    0.0000 C   0  0
    9.2977   -7.3046    0.0000 C   0  0
   11.4328   -7.1209    0.0000 C   0  0
    7.8652   -7.3046    0.0000 N   0  0
    9.3850   -6.4781    0.0000 C   0  0
    8.5815   -7.7270    0.0000 C   0  0
    6.4326   -6.4781    0.0000 O   0  0
    7.8652   -6.4781    0.0000 N   0  0
    7.1489   -5.2475    0.0000 O   0  0
   11.9058   -6.4459    0.0000 C   0  0
    5.7163   -6.0602    0.0000 C   0  0
   12.7323   -6.5332    0.0000 C   0  0
   13.2144   -5.8582    0.0000 Cl  0  0
   11.7634   -7.8693    0.0000 C   0  0
   12.5899   -7.9520    0.0000 C   0  0
    5.0000   -5.6745    0.0000 C   0  0
    5.7163   -5.2337    0.0000 C   0  0
    5.0413   -6.5194    0.0000 C   0  0
   13.0629   -7.2862    0.0000 C   0  0
  2  1  1  0
  3 11  1  0
  4  1  2  0
  5  2  1  0
  6  1  1  0
  7  9  2  0
  8  4  1  0
  9  5  1  0
 10  3  1  0
 11  7  1  0
 12  3  2  0
 13  6  2  0
 14 10  1  0
 15 13  1  0
 16 15  1  0
 17  6  1  0
 18 17  2  0
 19 14  1  0
 20 14  1  0
 21 14  1  0
 22 18  1  0
  5  8  2  0
 15 22  2  0
M  END
> <COMPOUND_ID>
DNDI1417361

$$$$

  SciTegic04051205032D

 22 24  0  0  0  0            999 V2000
    6.4336   -9.1206    0.0000 C   0  0
    7.1464   -8.7053    0.0000 N   0  0
    5.7246   -8.7053    0.0000 N   0  0
    7.1464   -7.8907    0.0000 C   0  0
    6.4336   -7.4755    0.0000 N   0  0
    6.4336   -9.9392    0.0000 C   0  0
    5.7246   -7.8907    0.0000 C   0  0
    7.8632   -7.4637    0.0000 N   0  0
    7.8632   -6.6451    0.0000 N   0  0
    5.7246  -10.3466    0.0000 C   0  0
    7.1347  -10.3466    0.0000 C   0  0
    5.0078   -7.4637    0.0000 N   0  0
    5.7246  -11.1809    0.0000 C   0  0
    7.1347  -11.1809    0.0000 C   0  0
    6.4336  -11.5921    0.0000 C   0  0
    5.0000   -9.9392    0.0000 O   0  0
    7.8632  -11.6039    0.0000 Cl  0  0
    8.5761   -6.2338    0.0000 C   0  0
    7.1347   -6.2338    0.0000 C   0  0
    8.5761   -5.4073    0.0000 C   0  0
    7.1347   -5.4073    0.0000 C   0  0
    7.8632   -5.0000    0.0000 C   0  0
  2  1  2  0
  3  1  1  0
  4  2  1  0
  5  7  1  0
  6  1  1  0
  7  3  2  0
  8  4  1  0
  9  8  1  0
 10  6  2  0
 11  6  1  0
 12  7  1  0
 13 10  1  0
 14 11  2  0
 15 14  1  0
 16 10  1  0
 17 14  1  0
 18  9  1  0
 19  9  1  0
 20 18  1  0
 21 19  1  0
 22 21  1  0
  5  4  2  0
 15 13  2  0
 22 20  1  0
M  END
> <COMPOUND_ID>
DNDI1417362

$$$$

  SciTegic04051205032D

 24 26  0  0  0  0            999 V2000
    8.7886   -7.1386    0.0000 N   0  0
    9.2104   -6.4160    0.0000 C   0  0
    7.5355   -7.8362    0.0000 N   0  0
    7.9365   -8.5588    0.0000 C   0  0
    7.9573   -7.1303    0.0000 C   0  0
   10.0291   -6.4327    0.0000 C   0  0
   10.4301   -7.1470    0.0000 N   0  0
    8.8094   -5.7059    0.0000 C   0  0
    8.7635   -8.5755    0.0000 O   0  0
   10.4552   -5.7310    0.0000 C   0  0
    9.2272   -5.0000    0.0000 C   0  0
   10.0417   -5.0042    0.0000 C   0  0
    7.9824   -5.6934    0.0000 C   0  0
    7.5062   -9.2647    0.0000 C   0  0
    7.5563   -6.4035    0.0000 C   0  0
   11.2530   -7.1595    0.0000 C   0  0
   11.2697   -5.7351    0.0000 C   0  0
    7.9072   -9.9915    0.0000 C   0  0
    6.6834   -9.2522    0.0000 C   0  0
    6.2573   -9.9665    0.0000 C   0  0
    5.4303   -9.9540    0.0000 C   0  0
   11.6707   -6.4536    0.0000 C   0  0
    7.4853  -10.7016    0.0000 C   0  0
    5.0000  -10.6640    0.0000 C   0  0
  2  1  1  0
  3  5  1  0
  4  3  1  0
  5  1  2  0
  6  2  2  0
  7  6  1  0
  8  2  1  0
  9  4  2  0
 10  6  1  0
 11  8  2  0
 12 11  1  0
 13 15  2  0
 14  4  1  0
 15  5  1  0
 16  7  2  0
 17 10  1  0
 18 14  1  0
 19 14  1  0
 20 19  1  0
 21 20  1  0
 22 16  1  0
 23 18  1  0
 24 21  1  0
 13  8  1  0
 12 10  2  0
 22 17  2  0
M  END
> <COMPOUND_ID>
DNDI1417363

$$$$

  SciTegic04051205032D

 24 27  0  0  0  0            999 V2000
    7.1195   -9.3180    0.0000 C   0  0
    7.1195   -8.4909    0.0000 C   0  0
    7.8426   -9.7294    0.0000 N   0  0
    7.8426   -8.0712    0.0000 C   0  0
    6.4047   -9.7294    0.0000 C   0  0
    8.5616   -8.4826    0.0000 C   0  0
    6.4047   -8.0712    0.0000 C   0  0
    8.5616   -9.3180    0.0000 C   0  0
    9.6380   -6.0140    0.0000 N   0  0
    5.6982   -9.3180    0.0000 C   0  0
    5.6857   -8.4909    0.0000 C   0  0
    7.8302   -7.2566    0.0000 N   0  0
   11.2338   -5.5777    0.0000 O   0  0
    8.6281   -7.0364    0.0000 C   0  0
    8.8400   -6.2385    0.0000 C   0  0
    9.8582   -5.2161    0.0000 C   0  0
   10.2364   -6.5958    0.0000 C   0  0
    6.4171  -10.5481    0.0000 C   0  0
   10.6437   -5.0000    0.0000 C   0  0
   11.0343   -6.3756    0.0000 C   0  0
    9.2639   -9.7294    0.0000 C   0  0
    5.0000   -9.7294    0.0000 C   0  0
    5.7065  -10.9637    0.0000 C   0  0
    5.0000  -10.5523    0.0000 C   0  0
  2  1  1  0
  3  1  1  0
  4  2  1  0
  5  1  2  0
  6  8  1  0
  7  2  2  0
  8  3  2  0
  9 15  1  0
 10  5  1  0
 11 10  2  0
 12  4  1  0
 13 20  1  0
 14 12  1  0
 15 14  1  0
 16  9  1  0
 17  9  1  0
 18  5  1  0
 19 16  1  0
 20 17  1  0
 21  8  1  0
 22 10  1  0
 23 18  2  0
 24 23  1  0
 11  7  1  0
  6  4  2  0
 24 22  2  0
 19 13  1  0
M  END
> <COMPOUND_ID>
DNDI1417364

$$$$

  SciTegic04051205032D

 24 27  0  0  0  0            999 V2000
    7.3244   -7.3127    0.0000 C   0  0
    6.5496   -7.0273    0.0000 C   0  0
    7.6157   -6.5292    0.0000 C   0  0
    5.1427   -7.2894    0.0000 N   0  0
    5.9292   -7.5953    0.0000 C   0  0
    8.1137   -7.5953    0.0000 C   0  0
    6.3806   -6.2146    0.0000 C   0  0
    8.4021   -6.3807    0.0000 C   0  0
    7.0710   -8.0934    0.0000 O   0  0
    5.6321   -6.2146    0.0000 C   0  0
    5.5971   -5.9583    0.0000 C   0  0
    5.0000   -6.5030    0.0000 C   0  0
    5.9175   -7.2894    0.0000 C   0  0
    8.2536   -8.4050    0.0000 C   0  0
    7.0914   -5.8796    0.0000 C   0  0
    8.9147   -7.0273    0.0000 C   0  0
    8.6817   -5.6204    0.0000 C   0  0
    7.6506   -8.9380    0.0000 C   0  0
    9.0138   -8.6759    0.0000 C   0  0
    7.3768   -5.1486    0.0000 C   0  0
    8.1836   -5.0000    0.0000 C   0  0
    7.7904   -9.7361    0.0000 C   0  0
    9.1711   -9.4740    0.0000 C   0  0
    8.5565  -10.0245    0.0000 C   0  0
  2  1  1  0
  3  1  1  0
  4  5  1  0
  5  2  1  0
  6  1  1  0
  7  2  1  0
  8  3  2  0
  9  1  1  0
 10  7  1  0
 11  7  1  0
 12 11  1  0
 13 10  1  0
 14  6  1  0
 15  3  1  0
 16  8  1  0
 17  8  1  0
 18 14  2  0
 19 14  1  0
 20 15  2  0
 21 20  1  0
 22 18  1  0
 23 19  2  0
 24 23  1  0
 17 21  2  0
  4 12  1  0
  4 13  1  0
 22 24  2  0
M  END
> <COMPOUND_ID>
DNDI1417365

$$$$

  SciTegic04051205032D

 24 27  0  0  0  0            999 V2000
   12.0092   -6.4294    0.0000 N   0  0
   11.1880   -6.4294    0.0000 N   0  0
   12.4215   -5.7113    0.0000 C   0  0
   10.7723   -5.7113    0.0000 C   0  0
   13.2289   -5.8865    0.0000 N   0  0
   13.3183   -6.7077    0.0000 N   0  0
   12.5624   -7.0409    0.0000 C   0  0
    9.9477   -5.7113    0.0000 N   0  0
    8.2985   -5.7113    0.0000 N   0  0
    7.4738   -5.7113    0.0000 C   0  0
   12.0092   -5.0000    0.0000 C   0  0
   11.1880   -5.0000    0.0000 C   0  0
    7.0649   -6.4294    0.0000 C   0  0
    7.0649   -5.0000    0.0000 C   0  0
    9.5388   -6.4294    0.0000 C   0  0
    9.5388   -5.0000    0.0000 C   0  0
    8.7108   -6.4294    0.0000 C   0  0
    8.7108   -5.0000    0.0000 C   0  0
    6.2369   -6.4294    0.0000 C   0  0
    6.2369   -5.0000    0.0000 C   0  0
    5.8280   -5.7113    0.0000 C   0  0
   12.3906   -7.8484    0.0000 C   0  0
    7.4738   -7.1406    0.0000 C   0  0
    5.0000   -5.7113    0.0000 C   0  0
  2  1  1  0
  3  1  1  0
  4  2  2  0
  5  3  2  0
  6  7  2  0
  7  1  1  0
  8  4  1  0
  9 18  1  0
 10  9  1  0
 11  3  1  0
 12 11  2  0
 13 10  1  0
 14 10  2  0
 15  8  1  0
 16  8  1  0
 17 15  1  0
 18 16  1  0
 19 13  2  0
 20 14  1  0
 21 20  2  0
 22  7  1  0
 23 13  1  0
 24 21  1  0
  6  5  1  0
  4 12  1  0
 17  9  1  0
 21 19  1  0
M  END
> <COMPOUND_ID>
DNDI1417366

$$$$

  SciTegic04051205032D

 22 24  0  0  0  0            999 V2000
    7.4256   -7.2399    0.0000 C   0  0
    7.9761   -7.8523    0.0000 N   0  0
    9.2079   -7.0541    0.0000 C   0  0
    6.6136   -7.4085    0.0000 C   0  0
    8.7950   -7.7629    0.0000 C   0  0
    8.8707   -6.3006    0.0000 O   0  0
   10.0268   -6.9646    0.0000 C   0  0
    9.4865   -5.7432    0.0000 N   0  0
   10.1988   -6.1561    0.0000 C   0  0
    7.6768   -6.4554    0.0000 O   0  0
    6.3625   -8.1929    0.0000 C   0  0
    6.0632   -6.7960    0.0000 C   0  0
    7.8006   -8.6574    0.0000 C   0  0
    6.9129   -8.8054    0.0000 Cl  0  0
    6.3143   -6.0116    0.0000 F   0  0
    9.1287   -8.5164    0.0000 C   0  0
    8.5163   -9.0703    0.0000 C   0  0
    5.0000   -7.7526    0.0000 C   0  0
    5.5504   -8.3616    0.0000 C   0  0
    5.2511   -6.9715    0.0000 C   0  0
   10.9557   -5.8224    0.0000 C   0  0
   11.0383   -5.0000    0.0000 C   0  0
  2  1  1  0
  3  5  1  0
  4  1  1  0
  5  2  1  0
  6  3  1  0
  7  3  2  0
  8  6  1  0
  9  7  1  0
 10  1  2  0
 11  4  1  0
 12  4  2  0
 13  2  1  0
 14 11  1  0
 15 12  1  0
 16  5  1  0
 17 13  1  0
 18 20  2  0
 19 11  2  0
 20 12  1  0
 21  9  1  0
 22 21  1  0
 19 18  1  0
 16 17  1  0
  9  8  2  0
M  END
> <COMPOUND_ID>
DNDI1417367

$$$$

  SciTegic04051205032D

 19 20  0  0  0  0            999 V2000
    6.5670   -7.5767    0.0000 C   0  0
    7.1871   -7.0029    0.0000 C   0  0
    5.7412   -7.4938    0.0000 C   0  0
    6.0297   -8.7970    0.0000 N   0  0
    6.7526   -8.3792    0.0000 N   0  0
    9.9627   -6.3662    0.0000 C   0  0
    5.4362   -8.2797    0.0000 C   0  0
    8.5699   -6.6945    0.0000 N   0  0
    7.9697   -7.2649    0.0000 N   0  0
    9.7372   -5.5803    0.0000 C   0  0
    6.9814   -6.2005    0.0000 O   0  0
   10.7685   -6.5918    0.0000 C   0  0
    9.3492   -6.9432    0.0000 C   0  0
    5.3300   -6.7974    0.0000 Br  0  0
   10.3142   -5.0000    0.0000 C   0  0
   11.3456   -5.9981    0.0000 C   0  0
   11.1200   -5.2122    0.0000 C   0  0
    8.9413   -5.3847    0.0000 O   0  0
   12.1414   -6.1706    0.0000 C   0  0
  2  1  1  0
  3  1  2  0
  4  5  1  0
  5  1  1  0
  6 13  1  0
  7  3  1  0
  8  9  1  0
  9  2  1  0
 10  6  1  0
 11  2  2  0
 12  6  2  0
 13  8  2  0
 14  3  1  0
 15 10  2  0
 16 12  1  0
 17 16  2  0
 18 10  1  0
 19 16  1  0
  4  7  2  0
 17 15  1  0
M  END
> <COMPOUND_ID>
DNDI1417368

$$$$

  SciTegic04051205032D

 19 21  0  0  0  0            999 V2000
    7.1403   -9.1184    0.0000 C   0  0
    6.4254   -8.7107    0.0000 C   0  0
    7.1403   -7.4635    0.0000 C   0  0
    7.8473   -8.7107    0.0000 C   0  0
    6.4254   -7.8712    0.0000 C   0  0
    7.8473   -7.8952    0.0000 C   0  0
    7.8473   -6.2471    0.0000 N   0  0
    7.1403   -6.6548    0.0000 C   0  0
    5.7127   -9.1184    0.0000 N   0  0
    9.2966   -5.4374    0.0000 O   0  0
    7.1403   -9.9544    0.0000 O   0  0
    8.5839   -9.0910    0.0000 Br  0  0
    7.8473   -5.4077    0.0000 C   0  0
    8.5565   -6.6548    0.0000 C   0  0
    5.7127   -7.4635    0.0000 C   0  0
    5.0000   -8.7107    0.0000 C   0  0
    8.5565   -5.0000    0.0000 C   0  0
    9.2966   -6.2231    0.0000 C   0  0
    5.0000   -7.8952    0.0000 C   0  0
  2  1  2  0
  3  6  1  0
  4  1  1  0
  5  2  1  0
  6  4  2  0
  7  8  1  0
  8  3  1  0
  9  2  1  0
 10 18  1  0
 11  1  1  0
 12  4  1  0
 13  7  1  0
 14  7  1  0
 15  5  1  0
 16  9  2  0
 17 13  1  0
 18 14  1  0
 19 16  1  0
  5  3  2  0
 19 15  2  0
 17 10  1  0
M  END
> <COMPOUND_ID>
DNDI1417369

$$$$

  SciTegic04051205032D

 24 26  0  0  0  0            999 V2000
    7.1424   -7.8902    0.0000 C   0  0
    7.8580   -6.6515    0.0000 N   0  0
    7.8580   -7.4773    0.0000 C   0  0
    7.1424   -6.2386    0.0000 C   0  0
    6.4313   -7.4773    0.0000 C   0  0
    6.4313   -6.6515    0.0000 C   0  0
    8.5783   -6.2386    0.0000 N   0  0
    9.2940   -6.6515    0.0000 C   0  0
    7.1424   -8.7159    0.0000 C   0  0
   10.0050   -6.2386    0.0000 C   0  0
    7.1424   -5.4129    0.0000 O   0  0
    9.2940   -7.4773    0.0000 O   0  0
   10.7116   -6.6515    0.0000 N   0  0
    7.8580   -9.1288    0.0000 O   0  0
    6.4313   -9.1288    0.0000 O   0  0
    5.7157   -7.8902    0.0000 C   0  0
    5.7157   -6.2386    0.0000 C   0  0
   11.4272   -6.2386    0.0000 C   0  0
   10.0050   -5.4129    0.0000 C   0  0
    6.4313   -9.9546    0.0000 C   0  0
    5.0000   -6.6515    0.0000 C   0  0
    5.0000   -7.4773    0.0000 C   0  0
   11.4272   -5.4129    0.0000 C   0  0
   10.7116   -5.0000    0.0000 C   0  0
  2  3  1  0
  3  1  2  0
  4  6  1  0
  5  1  1  0
  6  5  1  0
  7  2  1  0
  8  7  1  0
  9  1  1  0
 10  8  1  0
 11  4  2  0
 12  8  2  0
 13 10  2  0
 14  9  2  0
 15  9  1  0
 16  5  2  0
 17  6  2  0
 18 13  1  0
 19 10  1  0
 20 15  1  0
 21 22  2  0
 22 16  1  0
 23 24  1  0
 24 19  2  0
  4  2  1  0
 21 17  1  0
 23 18  2  0
M  END
> <COMPOUND_ID>
DNDI1417370

$$$$

  SciTegic04051205032D

 24 26  0  0  0  0            999 V2000
    8.7349   -9.4891    0.0000 C   0  0
    8.1460   -8.9109    0.0000 N   0  0
    7.3199   -9.1120    0.0000 C   0  0
    5.9516   -8.7493    0.0000 C   0  0
    6.7417   -8.5339    0.0000 C   0  0
    7.1188   -9.9129    0.0000 C   0  0
    5.7362   -9.5358    0.0000 C   0  0
    6.3287  -10.1176    0.0000 C   0  0
    8.5050  -10.3115    0.0000 O   0  0
    9.5214   -9.2880    0.0000 C   0  0
    5.3735   -8.1747    0.0000 O   0  0
   11.1123   -8.8642    0.0000 N   0  0
    5.5745   -7.3738    0.0000 C   0  0
    6.1132  -10.9472    0.0000 N   0  0
    6.0020   -5.7937    0.0000 C   0  0
    6.1923   -5.0000    0.0000 F   0  0
    5.0000   -6.7885    0.0000 C   0  0
    6.3791   -7.1727    0.0000 C   0  0
    6.5909   -6.3718    0.0000 C   0  0
    5.2155   -6.0055    0.0000 C   0  0
   10.8968   -9.6507    0.0000 C   0  0
   10.5270   -8.2824    0.0000 C   0  0
    9.7369   -8.4835    0.0000 C   0  0
   10.0960   -9.8733    0.0000 C   0  0
  2  1  1  0
  3  2  1  0
  4  5  1  0
  5  3  2  0
  6  3  1  0
  7  8  1  0
  8  6  2  0
  9  1  2  0
 10  1  1  0
 11  4  1  0
 12 22  2  0
 13 11  1  0
 14  8  1  0
 15 19  2  0
 16 15  1  0
 17 13  1  0
 18 13  2  0
 19 18  1  0
 20 17  2  0
 21 24  2  0
 22 23  1  0
 23 10  2  0
 24 10  1  0
 12 21  1  0
  7  4  2  0
 15 20  1  0
M  END
> <COMPOUND_ID>
DNDI1417371

$$$$

  SciTegic04051205032D

 24 26  0  0  0  0            999 V2000
    8.2187   -7.6584    0.0000 C   0  0
    7.7357   -8.3247    0.0000 N   0  0
    7.7232   -6.9963    0.0000 N   0  0
    6.9487   -8.0749    0.0000 C   0  0
    6.9487   -7.2587    0.0000 C   0  0
    9.0474   -7.6584    0.0000 N   0  0
    7.9981   -9.1117    0.0000 C   0  0
    5.8078  -11.5726    0.0000 C   0  0
    6.3574  -10.9563    0.0000 C   0  0
    7.1694  -11.1229    0.0000 C   0  0
    6.0868  -10.1735    0.0000 C   0  0
    7.9731   -6.2094    0.0000 C   0  0
    7.4484   -9.7238    0.0000 C   0  0
    7.7066  -10.5066    0.0000 C   0  0
    6.6364   -9.5572    0.0000 C   0  0
    6.2242   -8.4954    0.0000 C   0  0
    6.2242   -6.8464    0.0000 C   0  0
    9.0349   -5.2475    0.0000 O   0  0
    5.0000  -11.4102    0.0000 C   0  0
    6.0701  -12.3554    0.0000 C   0  0
    5.3498  -10.8855    0.0000 C   0  0
    8.7851   -6.0262    0.0000 C   0  0
    5.5205   -7.2587    0.0000 C   0  0
    5.5205   -8.0873    0.0000 C   0  0
  2  1  1  0
  3  1  1  0
  4  2  1  0
  5  3  1  0
  6  1  2  0
  7  2  1  0
  8  9  1  0
  9 11  2  0
 10 14  2  0
 11 15  1  0
 12  3  1  0
 13  7  1  0
 14 13  1  0
 15 13  2  0
 16  4  2  0
 17  5  2  0
 18 22  1  0
 19  8  1  0
 20  8  1  0
 21  8  1  0
 22 12  1  0
 23 17  1  0
 24 16  1  0
  4  5  1  0
 24 23  2  0
  9 10  1  0
M  END
> <COMPOUND_ID>
DNDI1417372

$$$$

  SciTegic04051205032D

 24 26  0  0  0  0            999 V2000
    7.6787   -7.8649    0.0000 C   0  0
    7.2167   -7.1773    0.0000 N   0  0
    7.2167   -8.5202    0.0000 N   0  0
    6.4288   -7.4352    0.0000 C   0  0
    6.4288   -8.2624    0.0000 C   0  0
    8.5238   -7.8864    0.0000 N   0  0
    7.4745   -6.3895    0.0000 C   0  0
    6.6867  -11.3242    0.0000 C   0  0
    6.9589  -12.0977    0.0000 C   0  0
    7.4924   -9.3116    0.0000 C   0  0
    7.2167  -10.7011    0.0000 O   0  0
    5.7234   -7.0269    0.0000 C   0  0
    5.7234   -8.6778    0.0000 C   0  0
    6.9445   -9.9276    0.0000 C   0  0
    6.9266   -5.7807    0.0000 C   0  0
    7.7861  -12.2481    0.0000 C   0  0
    5.8738  -11.1702    0.0000 C   0  0
    6.4288  -12.7172    0.0000 C   0  0
    6.1173   -5.9597    0.0000 C   0  0
    7.1845   -5.0000    0.0000 C   0  0
    5.0000   -7.4352    0.0000 C   0  0
    5.0000   -8.2624    0.0000 C   0  0
    5.3438  -11.7862    0.0000 C   0  0
    5.6160  -12.5597    0.0000 C   0  0
  2  1  1  0
  3  1  1  0
  4  2  1  0
  5  3  1  0
  6  1  2  0
  7  2  1  0
  8 11  1  0
  9  8  1  0
 10  3  1  0
 11 14  1  0
 12  4  1  0
 13  5  1  0
 14 10  1  0
 15  7  1  0
 16  9  1  0
 17  8  2  0
 18  9  2  0
 19 15  1  0
 20 15  1  0
 21 12  2  0
 22 13  2  0
 23 17  1  0
 24 23  2  0
  4  5  2  0
 21 22  1  0
 18 24  1  0
M  END
> <COMPOUND_ID>
DNDI1417373

$$$$

  SciTegic04051205032D

 19 20  0  0  0  0            999 V2000
    7.1449   -6.4845    0.0000 N   0  0
    7.1449   -7.3175    0.0000 C   0  0
    6.4327   -6.0722    0.0000 C   0  0
    5.7122   -7.3175    0.0000 N   0  0
    5.7122   -6.4845    0.0000 C   0  0
    6.4327   -7.7215    0.0000 N   0  0
    9.9980   -7.3175    0.0000 C   0  0
    8.5735   -7.3175    0.0000 N   0  0
    7.8488   -7.7215    0.0000 N   0  0
    9.9938   -6.4845    0.0000 C   0  0
   10.7102   -7.7215    0.0000 C   0  0
    9.2941   -7.7215    0.0000 C   0  0
   10.6977   -6.0722    0.0000 C   0  0
   11.4307   -7.3175    0.0000 C   0  0
    6.4327   -5.2475    0.0000 O   0  0
   11.4307   -6.4845    0.0000 C   0  0
   12.1429   -7.7215    0.0000 Br  0  0
    9.2816   -6.0722    0.0000 O   0  0
    5.0000   -6.0722    0.0000 C   0  0
  2  1  1  0
  3  1  2  0
  4  5  2  0
  5  3  1  0
  6  2  2  0
  7 12  1  0
  8  9  1  0
  9  2  1  0
 10  7  1  0
 11  7  2  0
 12  8  2  0
 13 10  2  0
 14 11  1  0
 15  3  1  0
 16 14  2  0
 17 14  1  0
 18 10  1  0
 19  5  1  0
  4  6  1  0
 13 16  1  0
M  END
> <COMPOUND_ID>
DNDI1417374

$$$$

  SciTegic04051205032D

 21 22  0  0  0  0            999 V2000
    7.8359   -6.4985    0.0000 C   0  0
    8.5556   -6.0911    0.0000 N   0  0
    7.8359   -7.3354    0.0000 C   0  0
    7.1402   -6.0911    0.0000 C   0  0
    9.8209   -5.6577    0.0000 N   0  0
    8.5556   -5.2523    0.0000 N   0  0
    8.5506   -7.7378    0.0000 C   0  0
    9.3585   -6.3394    0.0000 C   0  0
    9.3585   -5.0000    0.0000 C   0  0
    8.5506   -8.5626    0.0000 C   0  0
    9.2614   -8.9811    0.0000 C   0  0
    6.4134   -6.5176    0.0000 C   0  0
    7.1402   -5.2673    0.0000 O   0  0
    9.2614   -7.3354    0.0000 C   0  0
    9.9801   -8.5747    0.0000 C   0  0
    7.8359   -8.9631    0.0000 Cl  0  0
    9.9801   -7.7378    0.0000 C   0  0
   10.6948   -8.9811    0.0000 Cl  0  0
    5.6957   -6.1292    0.0000 C   0  0
    5.6787   -5.3123    0.0000 C   0  0
    5.0000   -6.5586    0.0000 C   0  0
  2  1  1  0
  3  1  2  0
  4  1  1  0
  5  8  2  0
  6  2  1  0
  7  3  1  0
  8  2  1  0
  9  6  2  0
 10  7  2  0
 11 10  1  0
 12  4  1  0
 13  4  2  0
 14  7  1  0
 15 17  1  0
 16 10  1  0
 17 14  2  0
 18 15  1  0
 19 12  1  0
 20 19  1  0
 21 19  1  0
  5  9  1  0
 11 15  2  0
M  END
> <COMPOUND_ID>
DNDI1417375

$$$$

  SciTegic04051205032D

 22 23  0  0  0  0            999 V2000
    7.1458   -8.5517    0.0000 N   0  0
    9.9958   -6.0684    0.0000 C   0  0
    7.1458   -7.7267    0.0000 C   0  0
    6.4250   -9.7892    0.0000 C   0  0
    6.4250   -8.9642    0.0000 N   0  0
    9.2833   -6.4892    0.0000 C   0  0
    7.8583   -7.3142    0.0000 C   0  0
    6.4250   -7.3142    0.0000 C   0  0
    7.1375  -10.2017    0.0000 S   0  0
    5.7125   -7.7267    0.0000 N   0  0
    9.2833   -7.3142    0.0000 C   0  0
    8.5625   -6.0767    0.0000 C   0  0
    8.5708   -7.7267    0.0000 C   0  0
    7.8500   -6.4892    0.0000 C   0  0
   10.7082   -6.4850    0.0000 F   0  0
    9.9875   -5.2475    0.0000 F   0  0
   10.7082   -5.6517    0.0000 F   0  0
    5.7083  -10.1975    0.0000 N   0  0
    5.0000   -7.3142    0.0000 C   0  0
    6.4250   -6.4892    0.0000 C   0  0
    5.0000   -6.4892    0.0000 C   0  0
    5.7125   -6.0767    0.0000 C   0  0
  2  6  1  0
  3  1  2  0
  4  5  1  0
  5  1  1  0
  6 12  1  0
  7  3  1  0
  8  3  1  0
  9  4  2  0
 10  8  2  0
 11 13  1  0
 12 14  2  0
 13  7  2  0
 14  7  1  0
 15  2  1  0
 16  2  1  0
 17  2  1  0
 18  4  1  0
 19 10  1  0
 20  8  1  0
 21 19  2  0
 22 20  2  0
 21 22  1  0
  6 11  2  0
M  END
> <COMPOUND_ID>
DNDI1417376

$$$$

  SciTegic04051205032D

 24 26  0  0  0  0            999 V2000
    7.8744   -6.4555    0.0000 C   0  0
    8.6202   -6.0477    0.0000 C   0  0
    7.1519   -6.0243    0.0000 C   0  0
    7.8744   -7.2479    0.0000 C   0  0
    9.3077   -6.4827    0.0000 N   0  0
   10.1311   -6.4827    0.0000 N   0  0
   10.8575   -6.8828    0.0000 C   0  0
    7.1519   -7.6713    0.0000 C   0  0
   12.3103   -6.8711    0.0000 C   0  0
   11.5800   -8.1142    0.0000 C   0  0
    6.4333   -6.4322    0.0000 C   0  0
    6.4333   -7.2635    0.0000 C   0  0
   11.5800   -6.4827    0.0000 C   0  0
    8.6202   -5.2475    0.0000 O   0  0
   13.0406   -6.4555    0.0000 O   0  0
   10.8575   -7.7063    0.0000 C   0  0
   12.2831   -7.6868    0.0000 C   0  0
    8.6202   -7.6441    0.0000 O   0  0
   11.0013   -8.6851    0.0000 C   0  0
   12.0306   -8.8055    0.0000 C   0  0
    5.7108   -6.0243    0.0000 C   0  0
    5.7108   -7.6713    0.0000 C   0  0
    5.0000   -6.4555    0.0000 C   0  0
    5.0000   -7.2479    0.0000 C   0  0
  2  1  1  0
  3  1  1  0
  4  1  2  0
  5  2  1  0
  6  5  1  0
  7  6  2  0
  8  4  1  0
  9 13  1  0
 10 16  1  0
 11  3  2  0
 12  8  2  0
 13  7  1  0
 14  2  2  0
 15  9  2  0
 16  7  1  0
 17  9  1  0
 18  4  1  0
 19 10  1  0
 20 10  1  0
 21 11  1  0
 22 12  1  0
 23 21  2  0
 24 22  2  0
 12 11  1  0
 24 23  1  0
 17 10  1  0
M  END
> <COMPOUND_ID>
DNDI1417377

$$$$

  SciTegic04051205032D

 23 25  0  0  0  0            999 V2000
    8.5549   -6.2527    0.0000 C   0  0
    6.4186   -7.5054    0.0000 C   0  0
    7.8455   -7.4889    0.0000 S   0  0
    5.7093   -7.9160    0.0000 N   0  0
    9.2808   -6.6675    0.0000 N   0  0
    7.8455   -6.6675    0.0000 C   0  0
    5.7093   -8.7374    0.0000 C   0  0
    6.4186   -9.1439    0.0000 C   0  0
    6.4186   -6.6675    0.0000 O   0  0
    7.1280   -7.9036    0.0000 C   0  0
    8.5673   -5.4189    0.0000 C   0  0
    6.4186   -9.9693    0.0000 C   0  0
    7.1238  -10.3759    0.0000 O   0  0
    7.1362   -5.4148    0.0000 C   0  0
    5.0000   -9.9693    0.0000 C   0  0
   10.0026   -6.2569    0.0000 C   0  0
    7.1280   -6.2485    0.0000 C   0  0
    5.0000   -9.1439    0.0000 C   0  0
    7.8580   -5.0000    0.0000 C   0  0
    5.7093  -10.3759    0.0000 C   0  0
    9.2808   -5.0125    0.0000 C   0  0
    7.8373   -9.9693    0.0000 C   0  0
   10.0026   -5.4272    0.0000 C   0  0
  2 10  1  0
  3  6  1  0
  4  2  1  0
  5  1  1  0
  6  1  2  0
  7  4  1  0
  8  7  2  0
  9  2  2  0
 10  3  1  0
 11  1  1  0
 12  8  1  0
 13 12  1  0
 14 19  1  0
 15 18  2  0
 16  5  2  0
 17  6  1  0
 18  7  1  0
 19 11  2  0
 20 15  1  0
 21 11  1  0
 22 13  1  0
 23 16  1  0
 14 17  2  0
 23 21  2  0
 20 12  2  0
M  END
> <COMPOUND_ID>
DNDI1417378

$$$$

  SciTegic04051205032D

 23 24  0  0  0  0            999 V2000
    7.8902   -6.4364    0.0000 C   0  0
    6.4537   -6.4364    0.0000 C   0  0
    7.1823   -6.0310    0.0000 C   0  0
    7.8902   -7.2544    0.0000 C   0  0
    5.7217   -6.0172    0.0000 C   0  0
    8.5947   -6.0137    0.0000 O   0  0
    8.5947   -7.6771    0.0000 O   0  0
    6.4537   -7.2544    0.0000 C   0  0
    7.1823   -7.6771    0.0000 C   0  0
   10.0690   -8.2682    0.0000 O   0  0
    9.9762   -5.6014    0.0000 O   0  0
   10.5192   -6.8661    0.0000 O   0  0
    5.0000   -5.6117    0.0000 C   0  0
    6.2578   -5.4089    0.0000 C   0  0
    5.1306   -6.6461    0.0000 C   0  0
    8.5809   -5.2611    0.0000 C   0  0
    8.5362   -8.4538    0.0000 C   0  0
    9.4263   -8.8043    0.0000 C   0  0
   10.7047   -5.5636    0.0000 C   0  0
   10.7804   -8.2373    0.0000 C   0  0
   11.0656   -6.3506    0.0000 C   0  0
    9.4435   -5.0000    0.0000 C   0  0
   11.1687   -7.3746    0.0000 C   0  0
  2  3  2  0
  3  1  1  0
  4  1  2  0
  5  2  1  0
  6  1  1  0
  7  4  1  0
  8  9  2  0
  9  4  1  0
 10 18  1  0
 11 22  1  0
 12 21  1  0
 13  5  1  0
 14  5  1  0
 15  5  1  0
 16  6  1  0
 17  7  1  0
 18 17  1  0
 19 11  1  0
 20 10  1  0
 21 19  1  0
 22 16  1  0
 23 20  1  0
  8  2  1  0
 23 12  1  0
M  END
> <COMPOUND_ID>
DNDI1417379

$$$$

  SciTegic04051205032D

 24 26  0  0  0  0            999 V2000
   12.6461   -6.2035    0.0000 C   0  0
    6.6161   -5.0391    0.0000 N   0  0
   11.9640   -6.5858    0.0000 C   0  0
    7.4024   -5.2955    0.0000 C   0  0
    7.4024   -6.1209    0.0000 C   0  0
    6.6291   -6.3685    0.0000 C   0  0
   11.2299   -6.2035    0.0000 C   0  0
    6.1209   -5.7038    0.0000 C   0  0
   12.6461   -5.3910    0.0000 C   0  0
   11.2299   -5.3910    0.0000 C   0  0
   11.9640   -5.0000    0.0000 C   0  0
   11.9640   -7.4286    0.0000 O   0  0
    9.5312   -6.5206    0.0000 N   0  0
   13.3238   -5.0000    0.0000 O   0  0
   13.3803   -6.5858    0.0000 C   0  0
   10.5521   -6.5988    0.0000 C   0  0
    8.1149   -6.5206    0.0000 C   0  0
    6.2989   -7.1202    0.0000 C   0  0
    5.3128   -5.7864    0.0000 C   0  0
    8.8274   -6.1209    0.0000 C   0  0
   11.2385   -7.8370    0.0000 C   0  0
   14.0581   -5.3910    0.0000 C   0  0
    5.4953   -7.2157    0.0000 C   0  0
    5.0000   -6.5554    0.0000 C   0  0
  2  4  1  0
  3  1  2  0
  4  5  2  0
  5 17  1  0
  6  5  1  0
  7  3  1  0
  8  6  2  0
  9  1  1  0
 10 11  1  0
 11  9  2  0
 12  3  1  0
 13 16  1  0
 14  9  1  0
 15  1  1  0
 16  7  1  0
 17 20  1  0
 18  6  1  0
 19  8  1  0
 20 13  1  0
 21 12  1  0
 22 14  1  0
 23 18  2  0
 24 23  1  0
 10  7  2  0
  2  8  1  0
 24 19  2  0
M  END
> <COMPOUND_ID>
DNDI1417380

$$$$

  SciTegic04051205032D

 24 26  0  0  0  0            999 V2000
    7.2166   -5.1443    0.0000 N   0  0
    7.2304   -6.4881    0.0000 N   0  0
    7.7184   -5.8111    0.0000 C   0  0
    6.4365   -6.2372    0.0000 C   0  0
    6.4296   -5.4124    0.0000 C   0  0
    7.6428   -7.2098    0.0000 C   0  0
    8.5432   -5.8111    0.0000 C   0  0
    8.8697   -9.3371    0.0000 C   0  0
    8.4676  -10.0519    0.0000 C   0  0
    9.6842   -9.3268    0.0000 C   0  0
    5.7149   -6.6530    0.0000 C   0  0
    5.7149   -5.0000    0.0000 C   0  0
    7.6497  -10.0553    0.0000 O   0  0
    8.9556   -6.5259    0.0000 O   0  0
    9.7048  -10.7461    0.0000 C   0  0
    8.8834  -10.7564    0.0000 C   0  0
   10.1103  -10.0312    0.0000 C   0  0
    7.2373   -9.3508    0.0000 C   0  0
   10.0828   -8.6051    0.0000 C   0  0
    9.7838   -6.5259    0.0000 C   0  0
    7.2373   -7.9246    0.0000 C   0  0
    7.6497   -8.6360    0.0000 C   0  0
    5.0000   -6.2372    0.0000 C   0  0
    5.0000   -5.4124    0.0000 C   0  0
  2  3  1  0
  3  1  2  0
  4  5  1  0
  5  1  1  0
  6  2  1  0
  7  3  1  0
  8  9  1  0
  9 13  1  0
 10  8  2  0
 11  4  2  0
 12  5  2  0
 13 18  1  0
 14  7  1  0
 15 16  1  0
 16  9  2  0
 17 15  2  0
 18 22  1  0
 19 10  1  0
 20 14  1  0
 21  6  1  0
 22 21  1  0
 23 24  2  0
 24 12  1  0
  4  2  1  0
 11 23  1  0
 10 17  1  0
M  END
> <COMPOUND_ID>
DNDI1417381

$$$$

  SciTegic04051205032D

 23 25  0  0  0  0            999 V2000
    7.8690   -7.0876    0.0000 N   0  0
    8.5968   -6.6969    0.0000 C   0  0
    8.5968   -5.8695    0.0000 C   0  0
    7.1451   -6.6969    0.0000 C   0  0
    9.3169   -5.4328    0.0000 C   0  0
   10.0409   -5.0000    0.0000 N   0  0
   11.4659   -6.6471    0.0000 N   0  0
    7.8690   -5.4788    0.0000 C   0  0
    7.1451   -5.8695    0.0000 C   0  0
    5.0000   -7.9150    0.0000 N   0  0
    9.3169   -7.0876    0.0000 S   0  0
    6.4479   -7.0876    0.0000 C   0  0
   10.0103   -6.6471    0.0000 C   0  0
   10.7380   -7.0876    0.0000 C   0  0
   12.1630   -7.0378    0.0000 C   0  0
   11.4659   -5.8274    0.0000 C   0  0
    5.0000   -7.1297    0.0000 C   0  0
    5.7277   -8.3478    0.0000 C   0  0
    5.7277   -6.6969    0.0000 C   0  0
    6.4479   -7.9150    0.0000 C   0  0
   12.8832   -6.6471    0.0000 C   0  0
   12.1630   -5.4328    0.0000 C   0  0
   12.8832   -5.8274    0.0000 C   0  0
  2  1  1  0
  3  2  2  0
  4  1  2  0
  5  3  1  0
  6  5  3  0
  7 14  1  0
  8  3  1  0
  9  4  1  0
 10 18  1  0
 11  2  1  0
 12  4  1  0
 13 11  1  0
 14 13  1  0
 15  7  1  0
 16  7  1  0
 17 19  1  0
 18 20  2  0
 19 12  2  0
 20 12  1  0
 21 15  1  0
 22 16  1  0
 23 22  1  0
  8  9  2  0
 10 17  2  0
 23 21  1  0
M  END
> <COMPOUND_ID>
DNDI1417382

$$$$

  SciTegic04051205032D

 23 25  0  0  0  0            999 V2000
    7.4642   -6.7013    0.0000 C   0  0
    7.9350   -7.3646    0.0000 O   0  0
    6.6565   -6.7013    0.0000 C   0  0
    7.9866   -6.0517    0.0000 C   0  0
    8.7014   -7.1309    0.0000 C   0  0
   11.5917   -7.4745    0.0000 C   0  0
   10.1792   -7.2924    0.0000 N   0  0
    8.7289   -6.3473    0.0000 C   0  0
    9.4059   -7.6224    0.0000 C   0  0
    6.2441   -5.9865    0.0000 C   0  0
   10.8254   -7.8079    0.0000 N   0  0
   11.6845   -6.6497    0.0000 O   0  0
   12.2516   -7.9523    0.0000 C   0  0
    6.6565   -5.2475    0.0000 Cl  0  0
    6.2372   -7.4333    0.0000 C   0  0
    5.4124   -5.9865    0.0000 C   0  0
   12.1588   -8.7840    0.0000 C   0  0
   13.0215   -7.6017    0.0000 C   0  0
    5.4124   -7.4333    0.0000 C   0  0
   12.8393   -9.2514    0.0000 C   0  0
   13.6711   -8.1069    0.0000 C   0  0
    5.0000   -6.7013    0.0000 C   0  0
   13.5576   -8.9180    0.0000 C   0  0
  2  1  1  0
  3  1  1  0
  4  1  2  0
  5  2  1  0
  6 11  1  0
  7  9  2  0
  8  4  1  0
  9  5  1  0
 10  3  1  0
 11  7  1  0
 12  6  2  0
 13  6  1  0
 14 10  1  0
 15  3  2  0
 16 10  2  0
 17 13  2  0
 18 13  1  0
 19 15  1  0
 20 17  1  0
 21 18  2  0
 22 19  2  0
 23 21  1  0
  5  8  2  0
 16 22  1  0
 23 20  2  0
M  END
> <COMPOUND_ID>
DNDI1417383

$$$$

  SciTegic04051205032D

 21 22  0  0  0  0            999 V2000
    9.1354   -5.9427    0.0000 C   0  0
    9.5499   -6.6969    0.0000 C   0  0
    5.8033   -7.3039    0.0000 C   0  0
    6.6297   -7.3306    0.0000 C   0  0
    9.0979   -7.3922    0.0000 C   0  0
    9.5018   -8.1115    0.0000 C   0  0
    7.8999   -6.6434    0.0000 N   0  0
    5.3835   -7.9859    0.0000 C   0  0
   10.3388   -8.1383    0.0000 C   0  0
    8.3090   -5.9427    0.0000 N   0  0
    9.5606   -5.2475    0.0000 O   0  0
   10.3548   -6.7076    0.0000 C   0  0
    7.0735   -6.6166    0.0000 C   0  0
    7.0281   -8.0366    0.0000 C   0  0
   10.7693   -7.4296    0.0000 C   0  0
    5.7766   -8.7079    0.0000 C   0  0
    5.4102   -6.5739    0.0000 Cl  0  0
    9.0819   -8.8095    0.0000 O   0  0
    6.6029   -8.7346    0.0000 C   0  0
    5.3300   -9.4112    0.0000 Cl  0  0
   10.7426   -8.8630    0.0000 O   0  0
  2  1  1  0
  3  4  1  0
  4 13  1  0
  5  2  2  0
  6  5  1  0
  7 10  1  0
  8  3  2  0
  9 15  1  0
 10  1  1  0
 11  1  2  0
 12  2  1  0
 13  7  2  0
 14  4  2  0
 15 12  2  0
 16 19  2  0
 17  3  1  0
 18  6  1  0
 19 14  1  0
 20 16  1  0
 21  9  1  0
  9  6  2  0
 16  8  1  0
M  END
> <COMPOUND_ID>
DNDI1417384

$$$$

  SciTegic04051205032D

 24 26  0  0  0  0            999 V2000
    7.3428   -6.5955    0.0000 C   0  0
    7.3428   -7.4304    0.0000 C   0  0
    6.6118   -7.8417    0.0000 N   0  0
    8.0739   -6.1790    0.0000 N   0  3
    6.6118   -6.1790    0.0000 C   0  0
    5.8818   -6.5955    0.0000 N   0  0
    5.8818   -7.4304    0.0000 C   0  0
    8.8039   -6.5955    0.0000 C   0  0
    8.0739   -7.8417    0.0000 N   0  0
    8.8039   -7.4304    0.0000 N   0  0
    9.5360   -6.1790    0.0000 C   0  0
    8.0739   -5.3665    0.0000 O   0  5
    6.6118   -5.3665    0.0000 O   0  0
    5.1650   -7.8336    0.0000 O   0  0
   10.2446   -6.5955    0.0000 C   0  0
    5.1650   -6.1943    0.0000 C   0  0
    8.0739   -8.6613    0.0000 C   0  0
   10.9532   -6.2096    0.0000 C   0  0
   10.9532   -5.4032    0.0000 C   0  0
   11.6690   -6.6107    0.0000 C   0  0
    7.3775   -9.0645    0.0000 C   0  0
   11.6476   -5.0000    0.0000 C   0  0
   12.3644   -6.2096    0.0000 C   0  0
   12.3491   -5.3727    0.0000 C   0  0
  2  1  1  0
  3  2  2  0
  4  1  2  0
  5  1  1  0
  6  5  1  0
  7  6  1  0
  8  4  1  0
  9  2  1  0
 10  8  2  0
 11  8  1  0
 12  4  1  0
 13  5  2  0
 14  7  2  0
 15 11  2  0
 16  6  1  0
 17  9  1  0
 18 15  1  0
 19 18  1  0
 20 18  2  0
 21 17  1  0
 22 19  2  0
 23 20  1  0
 24 23  2  0
  7  3  1  0
  9 10  1  0
 24 22  1  0
M  CHG  2   4   1  12  -1
M  END
> <COMPOUND_ID>
DNDI1417385

$$$$

  SciTegic04051205032D

 25 28  0  0  0  0            999 V2000
    7.6999   -6.6790    0.0000 C   0  0
    8.5250   -6.6790    0.0000 C   0  0
    7.2104   -7.3440    0.0000 N   0  0
    7.2104   -6.0172    0.0000 N   0  0
    8.9406   -5.9618    0.0000 C   0  0
    8.9406   -7.3871    0.0000 C   0  0
    6.4253   -7.0947    0.0000 C   0  0
    6.4253   -6.2758    0.0000 C   0  0
    8.5157   -5.2475    0.0000 O   0  0
    9.7626   -5.9618    0.0000 C   0  0
    7.2935   -8.8186    0.0000 N   0  0
    8.5250   -8.1045    0.0000 C   0  0
    7.7091   -8.1045    0.0000 C   0  0
    5.7112   -7.5041    0.0000 C   0  0
    5.7112   -5.8540    0.0000 C   0  0
    7.7091   -9.5329    0.0000 C   0  0
   10.1751   -5.2475    0.0000 C   0  0
   10.1751   -6.6790    0.0000 C   0  0
    8.9406   -8.8186    0.0000 C   0  0
    8.5373   -9.5329    0.0000 C   0  0
    5.0000   -7.0947    0.0000 C   0  0
    5.0000   -6.2758    0.0000 C   0  0
   10.9970   -5.2475    0.0000 C   0  0
   11.0063   -6.6790    0.0000 C   0  0
   11.4189   -5.9618    0.0000 C   0  0
  2  1  1  0
  3  1  2  0
  4  1  1  0
  5  2  1  0
  6  2  2  0
  7  3  1  0
  8  4  1  0
  9  5  2  0
 10  5  1  0
 11 13  1  0
 12  6  1  0
 13 12  2  0
 14  7  2  0
 15  8  2  0
 16 11  2  0
 17 10  1  0
 18 10  2  0
 19 12  1  0
 20 19  2  0
 21 14  1  0
 22 15  1  0
 23 17  2  0
 24 18  1  0
 25 23  1  0
  7  8  1  0
 21 22  2  0
 16 20  1  0
 25 24  2  0
M  END
> <COMPOUND_ID>
DNDI1417386

$$$$

  SciTegic04051205032D

 22 23  0  0  0  0            999 V2000
    8.5506   -5.8238    0.0000 C   0  0
    8.5506   -9.1191    0.0000 S   0  0
    8.5506   -6.6394    0.0000 C   0  0
    7.8380   -9.5310    0.0000 C   0  0
    8.5011   -5.0000    0.0000 F   0  0
    9.3003   -5.3542    0.0000 F   0  0
    7.8545   -5.4778    0.0000 F   0  0
    7.8298  -10.3548    0.0000 C   0  0
    9.2673   -7.0555    0.0000 C   0  0
    7.8380   -7.0555    0.0000 C   0  0
    8.5506   -8.2994    0.0000 C   0  0
    7.1418   -9.1191    0.0000 C   0  0
    9.2673   -7.8834    0.0000 C   0  0
    7.8380   -7.8834    0.0000 C   0  0
    5.7167   -9.1191    0.0000 N   0  0
    6.4293   -9.5310    0.0000 C   0  0
    8.5342  -10.7750    0.0000 C   0  0
    7.1048  -10.7503    0.0000 C   0  0
    5.0000   -9.5310    0.0000 C   0  0
    7.0884  -11.5782    0.0000 C   0  0
    8.5176  -11.6029    0.0000 C   0  0
    7.7927  -12.0107    0.0000 C   0  0
  2 11  1  0
  3  1  1  0
  4  2  1  0
  5  1  1  0
  6  1  1  0
  7  1  1  0
  8  4  1  0
  9  3  1  0
 10  3  2  0
 11 13  1  0
 12  4  1  0
 13  9  2  0
 14 10  1  0
 15 16  1  0
 16 12  1  0
 17  8  1  0
 18  8  2  0
 19 15  1  0
 20 18  1  0
 21 17  2  0
 22 20  2  0
 14 11  2  0
 22 21  1  0
M  END
> <COMPOUND_ID>
DNDI1417387

$$$$

  SciTegic04051205032D

 24 26  0  0  0  0            999 V2000
   10.6939   -7.1469    0.0000 C   0  0
    9.2549   -7.0769    0.0000 C   0  0
   10.7251   -6.3457    0.0000 N   0  0
    9.9472   -7.5203    0.0000 N   0  0
    8.5470   -7.4891    0.0000 N   0  0
    9.2549   -6.2368    0.0000 N   0  0
    7.8315   -7.0769    0.0000 C   0  0
   11.3552   -7.5903    0.0000 N   0  0
    7.8315   -6.2368    0.0000 C   0  0
    8.5470   -5.8168    0.0000 C   0  0
   11.4718   -5.9723    0.0000 C   0  0
   12.1486   -6.4235    0.0000 C   0  0
   12.1019   -7.2169    0.0000 C   0  0
    7.1236   -7.4891    0.0000 C   0  0
    7.1236   -5.8168    0.0000 C   0  0
    6.4080   -7.0769    0.0000 C   0  0
    6.4080   -6.2368    0.0000 C   0  0
    5.7079   -7.5203    0.0000 O   0  0
    8.5470   -5.0000    0.0000 C   0  0
   12.8408   -7.6758    0.0000 C   0  0
   10.9739   -5.3422    0.0000 C   0  0
   12.0319   -5.3422    0.0000 C   0  0
    5.7079   -8.3371    0.0000 C   0  0
    5.0000   -8.7571    0.0000 C   0  0
  2  4  1  0
  3  1  2  0
  4  1  1  0
  5  2  2  0
  6  2  1  0
  7  5  1  0
  8  1  1  0
  9 10  1  0
 10  6  2  0
 11  3  1  0
 12 13  2  0
 13  8  1  0
 14  7  1  0
 15  9  1  0
 16 14  2  0
 17 15  2  0
 18 16  1  0
 19 10  1  0
 20 13  1  0
 21 11  1  0
 22 11  1  0
 23 18  1  0
 24 23  1  0
 11 12  1  0
  9  7  2  0
 17 16  1  0
M  END
> <COMPOUND_ID>
DNDI1417388

$$$$

  SciTegic04051205032D

 25 28  0  0  0  0            999 V2000
    6.7141   -7.1458    0.0000 N   0  3
   10.4471   -9.2155    0.0000 N   0  0
   10.0492   -8.5002    0.0000 C   0  0
   11.2851   -9.2155    0.0000 C   0  0
    6.2824   -6.4475    0.0000 C   0  0
   10.4471   -7.7891    0.0000 C   0  0
    7.5521   -7.1331    0.0000 C   0  0
   11.2597   -7.7891    0.0000 C   0  0
   11.6872   -8.5002    0.0000 C   0  0
    8.7922   -7.8061    0.0000 C   0  0
    9.2155   -8.5002    0.0000 C   0  0
    7.9796   -7.8272    0.0000 C   0  0
    6.6760   -5.7237    0.0000 C   0  0
    7.9331   -6.4178    0.0000 C   0  0
    7.5098   -5.7068    0.0000 C   0  0
    6.3205   -7.8569    0.0000 C   0  0
   10.0281   -9.9519    0.0000 C   0  0
   11.6872   -9.9265    0.0000 C   0  0
    5.4401   -6.4559    0.0000 C   0  0
   12.4871   -8.4790    0.0000 C   0  0
    6.2316   -5.0000    0.0000 C   0  0
   12.4871   -9.9265    0.0000 C   0  0
    5.0000   -5.7576    0.0000 C   0  0
   12.9061   -9.1985    0.0000 C   0  0
    5.3936   -5.0254    0.0000 C   0  0
  2  3  1  0
  3 11  2  0
  4  2  1  0
  5  1  1  0
  6  3  1  0
  7  1  2  0
  8  6  2  0
  9  8  1  0
 10 12  2  0
 11 10  1  0
 12  7  1  0
 13  5  2  0
 14  7  1  0
 15 14  2  0
 16  1  1  0
 17  2  1  0
 18  4  1  0
 19  5  1  0
 20  9  1  0
 21 13  1  0
 22 18  2  0
 23 19  2  0
 24 20  2  0
 25 23  1  0
 15 13  1  0
 21 25  2  0
  4  9  2  0
 22 24  1  0
M  CHG  1   1   1
M  END
> <COMPOUND_ID>
DNDI1417389

$$$$

  SciTegic04051205032D

 23 25  0  0  0  0            999 V2000
    8.6889   -8.2801    0.0000 C   0  0
    7.9651   -8.6011    0.0000 C   0  0
    7.7289   -9.4128    0.0000 C   0  0
    9.4128   -8.6768    0.0000 C   0  0
    8.2135  -10.0730    0.0000 S   0  0
    6.9293   -9.6127    0.0000 C   0  0
    7.3927   -7.9893    0.0000 C   0  0
    8.6889   -7.4684    0.0000 C   0  0
    9.5733   -9.4733    0.0000 C   0  0
    9.0373  -10.1124    0.0000 C   0  0
    6.3599   -9.0130    0.0000 C   0  0
    6.5962   -8.1922    0.0000 C   0  0
    8.6889   -5.8238    0.0000 N   0  0
    9.4128   -7.0444    0.0000 C   0  0
   10.0458   -8.1286    0.0000 C   0  0
    5.5724   -9.2250    0.0000 O   0  0
    9.4128   -6.2205    0.0000 C   0  0
   10.3608   -9.7490    0.0000 C   0  0
    8.0045   -6.2448    0.0000 C   0  0
    8.6738   -5.0000    0.0000 C   0  0
    5.0000   -8.6526    0.0000 C   0  0
   10.8332   -8.4012    0.0000 C   0  0
   10.9817   -9.2250    0.0000 C   0  0
  2  1  1  0
  3  2  2  0
  4  1  1  0
  5  3  1  0
  6  3  1  0
  7  2  1  0
  8  1  2  0
  9  4  2  0
 10  9  1  0
 11 12  1  0
 12  7  2  0
 13 17  1  0
 14  8  1  0
 15  4  1  0
 16 11  1  0
 17 14  1  0
 18  9  1  0
 19 13  1  0
 20 13  1  0
 21 16  1  0
 22 15  2  0
 23 22  1  0
 10  5  1  0
 23 18  2  0
 11  6  2  0
M  END
> <COMPOUND_ID>
DNDI1417390

$$$$

  SciTegic04051205032D

 23 24  0  0  0  0            999 V2000
   10.0109   -7.4915    0.0000 N   0  0
    6.4308   -7.0629    0.0000 C   0  0
    5.7123   -7.4700    0.0000 C   0  0
    9.2924   -7.0722    0.0000 C   0  0
    5.0093   -7.0629    0.0000 C   0  0
    7.1370   -7.4823    0.0000 O   0  0
    9.9893   -8.3118    0.0000 C   0  0
   10.7171   -7.0722    0.0000 C   0  0
    6.4308   -6.2457    0.0000 C   0  0
    8.5739   -7.4823    0.0000 C   0  0
    5.7123   -8.3118    0.0000 C   0  0
    7.8554   -7.0629    0.0000 C   0  0
    5.0093   -6.2457    0.0000 C   0  0
    5.7123   -5.8295    0.0000 C   0  0
    8.5739   -8.3118    0.0000 O   0  0
   11.4294   -8.3211    0.0000 C   0  0
   11.4294   -7.4915    0.0000 C   0  0
   10.7171   -8.7281    0.0000 C   0  0
   10.7294   -6.2581    0.0000 C   0  0
    9.2801   -8.7188    0.0000 C   0  0
    5.0000   -8.7188    0.0000 C   0  0
    6.4308   -8.7188    0.0000 C   0  0
    5.7123   -5.0000    0.0000 C   0  0
  2  6  1  0
  3  2  1  0
  4  1  1  0
  5  3  1  0
  6 12  1  0
  7  1  1  0
  8  1  1  0
  9  2  1  0
 10  4  1  0
 11  3  1  0
 12 10  1  0
 13 14  1  0
 14  9  1  0
 15 10  1  0
 16 17  1  0
 17  8  1  0
 18  7  1  0
 19  8  1  0
 20  7  1  0
 21 11  1  0
 22 11  1  0
 23 14  1  0
 16 18  1  0
 13  5  1  0
M  END
> <COMPOUND_ID>
DNDI1417391

$$$$

  SciTegic04051205032D

 22 22  0  0  0  0            999 V2000
    7.8621   -7.4894    0.0000 C   0  0
    7.8621   -6.6621    0.0000 N   0  0
    8.5776   -7.9012    0.0000 O   0  0
    7.1503   -7.9012    0.0000 N   0  0
    8.5776   -6.2484    0.0000 C   0  0
   10.0030   -5.4211    0.0000 C   0  0
    7.8602   -9.9657    0.0000 N   0  0
   10.7167   -5.0000    0.0000 Cl  0  0
    9.2912   -6.6621    0.0000 C   0  0
    8.5776   -5.4211    0.0000 C   0  0
   10.0030   -6.2484    0.0000 C   0  0
    9.2912   -5.0074    0.0000 C   0  0
    7.1503   -8.7248    0.0000 C   0  0
    7.8621   -9.1384    0.0000 C   0  0
    7.1391  -10.3738    0.0000 C   0  0
    8.5645  -10.3850    0.0000 C   0  0
    6.4254   -9.9527    0.0000 C   0  0
    8.5645  -11.2123    0.0000 C   0  0
    5.7080  -10.3515    0.0000 C   0  0
    9.2763  -11.6241    0.0000 C   0  0
    5.0000   -9.9378    0.0000 C   0  0
    9.2744  -12.4514    0.0000 C   0  0
  2  1  1  0
  3  1  2  0
  4  1  1  0
  5  2  1  0
  6 12  2  0
  7 14  1  0
  8  6  1  0
  9  5  1  0
 10  5  2  0
 11  9  2  0
 12 10  1  0
 13  4  1  0
 14 13  1  0
 15  7  1  0
 16  7  1  0
 17 15  1  0
 18 16  1  0
 19 17  1  0
 20 18  1  0
 21 19  1  0
 22 20  1  0
  6 11  1  0
M  END
> <COMPOUND_ID>
DNDI1417392

$$$$

  SciTegic04051205032D

 20 22  0  0  0  0            999 V2000
    6.4129   -7.2993    0.0000 C   0  0
    6.4129   -6.4761    0.0000 C   0  0
    7.1254   -7.7129    0.0000 N   0  0
    7.1254   -6.0584    0.0000 C   0  0
    5.7084   -6.0584    0.0000 C   0  0
    5.7084   -7.7129    0.0000 C   0  0
    8.5752   -7.7129    0.0000 C   0  0
    8.5752   -8.5606    0.0000 C   0  0
    7.8503   -7.2993    0.0000 C   0  0
    5.0000   -6.4761    0.0000 C   0  0
    5.0000   -7.2993    0.0000 C   0  0
    7.8503   -6.4761    0.0000 C   0  0
    5.7084   -5.2475    0.0000 Br  0  0
    9.3082   -8.9701    0.0000 C   0  0
    5.7084   -8.5401    0.0000 O   0  0
    9.3082   -9.7933    0.0000 C   0  0
   10.0126   -8.5606    0.0000 C   0  0
   10.7211   -8.9701    0.0000 C   0  0
   10.0126  -10.2110    0.0000 C   0  0
   10.7211   -9.7933    0.0000 C   0  0
  2  1  1  0
  3  1  2  0
  4  2  2  0
  5  2  1  0
  6  1  1  0
  7  9  1  0
  8  7  2  0
  9  3  1  0
 10 11  1  0
 11  6  2  0
 12  9  2  0
 13  5  1  0
 14  8  1  0
 15  6  1  0
 16 14  2  0
 17 14  1  0
 18 17  2  0
 19 16  1  0
 20 18  1  0
 10  5  2  0
 12  4  1  0
 19 20  2  0
M  END
> <COMPOUND_ID>
DNDI1417393

$$$$

  SciTegic04051205032D

 23 24  0  0  0  0            999 V2000
   10.5819   -7.1708    0.0000 C   0  0
   13.2075   -6.0141    0.0000 C   0  0
   10.0310   -7.7814    0.0000 O   0  0
   10.1779   -6.4548    0.0000 C   0  0
    7.1345   -6.1977    0.0000 C   0  0
    9.2828   -7.4463    0.0000 C   0  0
   12.7164   -6.6751    0.0000 C   0  0
   11.4081   -7.2443    0.0000 C   0  0
    7.8506   -7.4463    0.0000 N   0  0
    9.3562   -6.6200    0.0000 C   0  0
   11.8901   -6.5833    0.0000 C   0  0
    8.5575   -7.8503    0.0000 C   0  0
    7.8506   -6.6200    0.0000 N   0  0
    7.1345   -5.3715    0.0000 O   0  0
   14.0200   -6.0876    0.0000 F   0  0
   12.8632   -5.2475    0.0000 F   0  0
   13.6528   -5.3531    0.0000 F   0  0
    6.4184   -6.6200    0.0000 O   0  0
   13.0469   -7.4325    0.0000 C   0  0
   11.7386   -8.0017    0.0000 C   0  0
   12.5649   -8.0935    0.0000 C   0  0
    5.7161   -6.1977    0.0000 C   0  0
    5.0000   -6.6200    0.0000 C   0  0
  2  7  1  0
  3  1  1  0
  4  1  2  0
  5 13  1  0
  6  3  1  0
  7 11  1  0
  8  1  1  0
  9 12  2  0
 10  4  1  0
 11  8  2  0
 12  6  1  0
 13  9  1  0
 14  5  2  0
 15  2  1  0
 16  2  1  0
 17  2  1  0
 18  5  1  0
 19 21  1  0
 20  8  1  0
 21 20  2  0
 22 18  1  0
 23 22  1  0
 10  6  2  0
 19  7  2  0
M  END
> <COMPOUND_ID>
DNDI1417394

$$$$

  SciTegic04051205032D

 23 26  0  0  0  0            999 V2000
    8.9685   -7.4959    0.0000 S   0  0
    8.3071   -7.0009    0.0000 C   0  0
    8.5691   -6.2272    0.0000 C   0  0
    7.3919   -6.2147    0.0000 C   0  0
    7.6082   -7.0259    0.0000 C   0  0
    9.6257   -7.0134    0.0000 C   0  0
    9.3761   -6.2272    0.0000 C   0  0
    7.0217   -7.5999    0.0000 C   0  0
    7.9784   -5.6364    0.0000 O   0  0
    6.5974   -6.0025    0.0000 C   0  0
    6.2230   -7.3836    0.0000 O   0  0
    6.0108   -6.5849    0.0000 C   0  0
    8.3778   -8.0741    0.0000 O   0  0
    9.5426   -8.0741    0.0000 O   0  0
    7.2421   -8.3986    0.0000 O   0  0
    9.9377   -5.6157    0.0000 C   0  0
   10.4244   -7.2006    0.0000 C   0  0
    6.3935   -5.2038    0.0000 C   0  0
    5.2122   -6.3769    0.0000 C   0  0
   10.7406   -5.7987    0.0000 C   0  0
    5.5948   -5.0000    0.0000 C   0  0
   10.9902   -6.5974    0.0000 C   0  0
    5.0000   -5.5782    0.0000 C   0  0
  2  1  1  0
  3  2  2  0
  4  9  1  0
  5  4  2  0
  6  1  1  0
  7  6  2  0
  8  5  1  0
  9  3  1  0
 10  4  1  0
 11 12  1  0
 12 10  2  0
 13  1  2  0
 14  1  2  0
 15  8  2  0
 16  7  1  0
 17  6  1  0
 18 10  1  0
 19 12  1  0
 20 22  1  0
 21 18  2  0
 22 17  2  0
 23 21  1  0
  7  3  1  0
 16 20  2  0
 11  8  1  0
 23 19  2  0
M  END
> <COMPOUND_ID>
DNDI1417395

$$$$

  SciTegic04051205032D

 23 25  0  0  0  0            999 V2000
    7.6994   -6.7578    0.0000 C   0  0
    7.4424   -5.9774    0.0000 C   0  0
    7.0154   -7.2445    0.0000 S   0  0
    6.6160   -5.9774    0.0000 C   0  0
    6.3681   -6.7578    0.0000 C   0  0
   10.0454   -7.5291    0.0000 C   0  0
    8.4844   -7.0241    0.0000 C   0  0
    8.6497   -7.8229    0.0000 N   0  0
    9.4256   -8.0800    0.0000 N   0  0
   10.8304   -7.7954    0.0000 O   0  0
    7.7729   -5.2475    0.0000 O   0  0
    9.8801   -6.7211    0.0000 C   0  0
   10.4999   -6.1702    0.0000 O   0  0
   11.2803   -6.4411    0.0000 C   0  0
    6.0605   -5.3577    0.0000 C   0  0
    5.5509   -6.9369    0.0000 C   0  0
   11.4455   -7.2445    0.0000 C   0  0
   11.9000   -5.8902    0.0000 C   0  0
    5.2525   -5.5367    0.0000 C   0  0
    5.0000   -6.3309    0.0000 C   0  0
   12.6759   -6.1427    0.0000 C   0  0
   12.2352   -7.5062    0.0000 C   0  0
   12.8550   -6.9553    0.0000 C   0  0
  2  1  2  0
  3  1  1  0
  4  2  1  0
  5  3  1  0
  6  9  1  0
  7  1  1  0
  8  7  2  0
  9  8  1  0
 10  6  2  0
 11  2  1  0
 12  6  1  0
 13 12  1  0
 14 13  1  0
 15  4  1  0
 16  5  1  0
 17 14  1  0
 18 14  2  0
 19 15  2  0
 20 16  2  0
 21 18  1  0
 22 17  2  0
 23 21  2  0
  5  4  2  0
 20 19  1  0
 23 22  1  0
M  END
> <COMPOUND_ID>
DNDI1417396

$$$$

  SciTegic04051205032D

 24 25  0  0  0  0            999 V2000
    7.3786   -6.7397    0.0000 C   0  0
    7.0035   -6.0265    0.0000 C   0  0
    6.0800   -6.9706    0.0000 N   0  0
    6.8056   -7.3416    0.0000 N   0  0
    6.1955   -6.1667    0.0000 C   0  0
    8.1948   -6.9417    0.0000 C   0  0
   10.8498   -8.3598    0.0000 C   0  0
    9.2420   -7.9435    0.0000 N   0  0
   10.2767   -8.9494    0.0000 C   0  0
    5.5895   -5.5937    0.0000 C   0  0
    8.4258   -7.7374    0.0000 N   0  0
    8.7679   -6.3522    0.0000 O   0  0
   11.6495   -8.5618    0.0000 C   0  0
    9.4770   -8.7432    0.0000 C   0  0
   13.0223   -8.1867    0.0000 C   0  0
   13.5954   -7.6013    0.0000 C   0  0
   10.6230   -7.5519    0.0000 O   0  0
   12.2349   -7.9724    0.0000 C   0  0
   10.4952   -9.7368    0.0000 C   0  0
   11.2826   -9.9470    0.0000 C   0  0
    5.0164   -6.1997    0.0000 C   0  0
    5.0000   -5.0166    0.0000 C   0  0
    6.1666   -5.0000    0.0000 C   0  0
   11.8556   -9.3534    0.0000 C   0  0
  2  1  2  0
  3  4  1  0
  4  1  1  0
  5  2  1  0
  6  1  1  0
  7  9  2  0
  8 11  1  0
  9 14  1  0
 10  5  1  0
 11  6  1  0
 12  6  2  0
 13  7  1  0
 14  8  2  0
 15 18  1  0
 16 15  2  0
 17  7  1  0
 18 13  1  0
 19  9  1  0
 20 19  2  0
 21 10  1  0
 22 10  1  0
 23 10  1  0
 24 20  1  0
  3  5  2  0
 24 13  2  0
M  END
> <COMPOUND_ID>
DNDI1417397

$$$$

  SciTegic04051205032D

 24 25  0  0  0  0            999 V2000
    7.4749   -7.8644    0.0000 O   0  0
    6.6500   -7.8644    0.0000 C   0  0
    9.9415   -7.8644    0.0000 N   0  3
    8.7103   -7.1483    0.0000 C   0  0
    6.2354   -7.1483    0.0000 C   0  0
    9.5353   -7.1483    0.0000 C   0  0
    7.8812   -7.1483    0.0000 C   0  0
    6.2354   -8.5805    0.0000 C   0  0
    5.4188   -7.1483    0.0000 C   0  0
    6.6583   -6.4406    0.0000 C   0  0
    6.2480   -5.7245    0.0000 C   0  0
    5.0126   -6.4406    0.0000 C   0  0
    5.4314   -5.7245    0.0000 C   0  0
    9.5353   -8.5805    0.0000 C   0  0
   10.7707   -7.8519    0.0000 C   0  0
   10.6576   -8.2664    0.0000 C   0  0
    8.7103   -7.9775    0.0000 C   0  0
    8.6978   -6.3275    0.0000 C   0  0
    6.6500   -9.2924    0.0000 C   0  0
    5.4146   -8.5680    0.0000 C   0  0
    5.0126   -5.0000    0.0000 C   0  0
    6.2354  -10.0085    0.0000 C   0  0
    5.0000   -9.2924    0.0000 C   0  0
    5.4146  -10.0085    0.0000 C   0  0
  2  1  1  0
  3  6  1  0
  4  7  1  0
  5  2  1  0
  6  4  1  0
  7  1  1  0
  8  2  1  0
  9  5  1  0
 10  5  2  0
 11 10  1  0
 12  9  2  0
 13 11  2  0
 14  3  1  0
 15  3  1  0
 16  3  1  0
 17  4  1  0
 18  4  1  0
 19  8  1  0
 20  8  2  0
 21 13  1  0
 22 19  2  0
 23 20  1  0
 24 23  2  0
 24 22  1  0
 13 12  1  0
M  CHG  1   3   1
M  END
> <COMPOUND_ID>
DNDI1417398

$$$$

  SciTegic04051205032D

 23 25  0  0  0  0            999 V2000
    9.3687   -7.4564    0.0000 C   0  0
   10.0337   -7.0131    0.0000 C   0  0
    9.5389   -8.2379    0.0000 O   0  0
    8.6051   -7.1004    0.0000 C   0  0
   10.6876   -7.5034    0.0000 C   0  0
    7.9311   -7.5773    0.0000 C   0  0
   10.3987   -8.3118    0.0000 C   0  0
    6.5025   -7.6982    0.0000 C   0  0
    7.1788   -7.2236    0.0000 C   0  0
    5.7502   -7.3445    0.0000 C   0  0
    5.0000   -7.0019    0.0000 N   0  0
    7.9983   -8.3991    0.0000 C   0  0
    9.9755   -6.1622    0.0000 C   0  0
    8.5357   -6.2674    0.0000 C   0  0
    6.5697   -8.5268    0.0000 C   0  0
   11.4578   -7.2818    0.0000 O   0  0
    9.2231   -5.7972    0.0000 C   0  0
    7.3221   -8.8738    0.0000 C   0  0
    5.8957   -8.9970    0.0000 N   0  0
    9.1627   -5.0000    0.0000 Cl  0  0
   11.1712   -8.5066    0.0000 C   0  0
   10.2644   -9.0955    0.0000 C   0  0
    7.1116   -6.4040    0.0000 C   0  0
  2  1  2  0
  3  1  1  0
  4  1  1  0
  5  2  1  0
  6  4  1  0
  7  3  1  0
  8  9  2  0
  9  6  1  0
 10  8  1  0
 11 10  3  0
 12  6  2  0
 13  2  1  0
 14  4  2  0
 15 18  2  0
 16  5  2  0
 17 13  2  0
 18 12  1  0
 19 15  1  0
 20 17  1  0
 21  7  1  0
 22  7  1  0
 23  9  1  0
  7  5  1  0
 17 14  1  0
 15  8  1  0
M  END
> <COMPOUND_ID>
DNDI1417399

$$$$

  SciTegic04051205032D

 19 19  0  0  0  0            999 V2000
    9.0352   -6.4346    0.0000 C   0  0
    8.6302   -7.1479    0.0000 C   0  0
    9.8531   -6.4346    0.0000 C   0  0
    8.6302   -5.7134    0.0000 C   0  0
   10.2764   -5.7264    0.0000 O   0  0
    9.0457   -7.8586    0.0000 O   0  0
    7.7993   -5.7134    0.0000 C   0  0
    7.7993   -7.1479    0.0000 O   0  0
   10.2764   -7.1479    0.0000 O   0  0
    6.1531   -5.7264    0.0000 C   0  0
    5.3300   -5.7369    0.0000 Br  0  0
    7.3760   -6.4346    0.0000 C   0  0
    7.3760   -5.0000    0.0000 C   0  0
    6.5581   -5.0000    0.0000 C   0  0
    6.5581   -6.4346    0.0000 C   0  0
   11.1047   -7.1479    0.0000 C   0  0
    7.3760   -7.8586    0.0000 C   0  0
    6.5581   -7.8691    0.0000 C   0  0
   11.5045   -7.8691    0.0000 C   0  0
  2  1  1  0
  3  1  1  0
  4  1  2  0
  5  3  2  0
  6  2  2  0
  7  4  1  0
  8  2  1  0
  9  3  1  0
 10 14  2  0
 11 10  1  0
 12  7  1  0
 13  7  2  0
 14 13  1  0
 15 12  2  0
 16  9  1  0
 17  8  1  0
 18 17  1  0
 19 16  1  0
 10 15  1  0
M  END
> <COMPOUND_ID>
DNDI1417400

$$$$

  SciTegic04051205032D

 25 28  0  0  0  0            999 V2000
    7.1294   -6.6860    0.0000 C   0  0
    7.8364   -6.2718    0.0000 C   0  0
    6.4057   -6.2718    0.0000 C   0  0
    7.1294   -7.5101    0.0000 C   0  0
    8.5644   -6.6734    0.0000 N   0  0
    5.7028   -6.6943    0.0000 C   0  0
    6.4057   -5.4518    0.0000 N   0  0
    6.4140   -7.9159    0.0000 C   0  0
    5.7028   -7.5101    0.0000 C   0  0
   11.4134   -5.0042    0.0000 N   0  0
    9.2755   -6.2593    0.0000 C   0  0
    7.8239   -5.4393    0.0000 C   0  0
   10.6980   -5.4309    0.0000 C   0  0
    7.1085   -5.0376    0.0000 C   0  0
    9.2672   -5.4393    0.0000 C   0  0
    9.9909   -6.6734    0.0000 C   0  0
   10.6980   -6.2550    0.0000 C   0  0
    9.9784   -5.0168    0.0000 C   0  0
   12.1371   -5.4184    0.0000 C   0  0
    6.4266   -8.7526    0.0000 C   0  0
    5.0000   -7.9285    0.0000 C   0  0
   12.8525   -5.0000    0.0000 C   0  0
   12.1371   -6.2425    0.0000 C   0  0
    5.0000   -8.7526    0.0000 C   0  0
    5.7028   -9.1710    0.0000 C   0  0
  2  1  2  0
  3  1  1  0
  4  1  1  0
  5  2  1  0
  6  3  1  0
  7  3  2  0
  8  4  2  0
  9  8  1  0
 10 13  1  0
 11  5  1  0
 12  2  1  0
 13 17  2  0
 14  7  1  0
 15 11  1  0
 16 11  2  0
 17 16  1  0
 18 15  2  0
 19 10  1  0
 20  8  1  0
 21  9  1  0
 22 19  1  0
 23 19  1  0
 24 25  1  0
 25 20  2  0
  6  9  2  0
 12 14  2  0
 24 21  2  0
 18 13  1  0
M  END
> <COMPOUND_ID>
DNDI1417401

$$$$

  SciTegic04051205032D

 24 25  0  0  0  0            999 V2000
    6.4709   -9.2306    0.0000 C   0  0
    6.4709   -8.4058    0.0000 N   0  0
    7.1857   -7.9934    0.0000 C   0  0
    7.1857   -9.6361    0.0000 N   0  0
    5.7526   -9.6361    0.0000 N   0  0
    7.9349   -8.4058    0.0000 N   0  0
    7.1857   -7.1617    0.0000 N   0  0
    7.1857  -10.5055    0.0000 C   0  0
    5.7526  -10.5055    0.0000 C   0  0
    6.4709  -10.9214    0.0000 C   0  0
    8.7562   -8.3439    0.0000 C   0  0
   10.2855   -8.1033    0.0000 C   0  0
    9.1033   -8.9075    0.0000 C   0  0
    9.1102   -7.6325    0.0000 C   0  0
    9.9247   -8.8766    0.0000 C   0  0
    9.9797   -7.5707    0.0000 C   0  0
   11.1309   -7.8971    0.0000 O   0  0
    7.9761  -10.9214    0.0000 C   0  0
    5.0000  -10.9214    0.0000 C   0  0
   11.3337   -7.0758    0.0000 C   0  0
   12.1413   -6.8181    0.0000 C   0  0
   13.1517   -5.8077    0.0000 C   0  0
   12.3510   -6.0207    0.0000 C   0  0
   13.3613   -5.0000    0.0000 C   0  0
  2  1  1  0
  3  2  1  0
  4  1  1  0
  5  1  2  0
  6  3  1  0
  7  3  2  0
  8  4  2  0
  9  5  1  0
 10  9  2  0
 11  6  1  0
 12 16  1  0
 13 11  2  0
 14 11  1  0
 15 13  1  0
 16 14  2  0
 17 12  1  0
 18  8  1  0
 19  9  1  0
 20 17  1  0
 21 20  1  0
 22 23  1  0
 23 21  1  0
 24 22  1  0
 10  8  1  0
 12 15  2  0
M  END
> <COMPOUND_ID>
DNDI1417402

$$$$

  SciTegic04051205032D

 25 28  0  0  0  0            999 V2000
    7.1728   -7.8971    0.0000 N   0  3
    9.3351   -7.4877    0.0000 C   0  0
    8.6213   -7.8971    0.0000 C   0  0
    7.8971   -7.4877    0.0000 C   0  0
   10.0463   -7.8971    0.0000 N   0  0
    9.3351   -6.6611    0.0000 C   0  0
    6.4485   -7.4877    0.0000 C   0  0
   10.7548   -7.4877    0.0000 C   0  0
   10.7548   -6.6611    0.0000 C   0  0
   10.0463   -6.2438    0.0000 C   0  0
    7.8971   -6.6611    0.0000 C   0  0
    6.4485   -6.6611    0.0000 C   0  0
    7.1728   -6.2438    0.0000 C   0  0
    7.1728   -8.7210    0.0000 C   0  0
   10.0463   -8.7079    0.0000 C   0  0
    8.6213   -6.2438    0.0000 C   0  0
    5.7243   -7.8971    0.0000 C   0  0
   10.0305   -5.4225    0.0000 C   0  0
    5.7243   -6.2438    0.0000 C   0  0
    6.4722   -9.1173    0.0000 C   0  0
    9.3587   -9.1094    0.0000 C   0  0
    8.6213   -5.4094    0.0000 C   0  0
    5.0000   -7.4877    0.0000 C   0  0
    9.3351   -5.0000    0.0000 C   0  0
    5.0000   -6.6611    0.0000 C   0  0
  2  3  2  0
  3  4  1  0
  4  1  1  0
  5  2  1  0
  6  2  1  0
  7  1  2  0
  8  5  1  0
  9 10  1  0
 10  6  2  0
 11  4  2  0
 12  7  1  0
 13 12  2  0
 14  1  1  0
 15  5  1  0
 16  6  1  0
 17  7  1  0
 18 10  1  0
 19 12  1  0
 20 14  1  0
 21 15  1  0
 22 16  2  0
 23 17  2  0
 24 22  1  0
 25 23  1  0
 11 13  1  0
 19 25  2  0
  8  9  2  0
 18 24  2  0
M  CHG  1   1   1
M  END
> <COMPOUND_ID>
DNDI1417403

$$$$

  SciTegic04051205032D

 24 26  0  0  0  0            999 V2000
    6.4289   -6.2379    0.0000 C   0  0
    7.1351   -6.6449    0.0000 C   0  0
   15.0815   -6.3874    0.0000 O   0  0
    5.7186   -6.6449    0.0000 C   0  0
   12.8716   -6.6449    0.0000 N   0  0
   14.3047   -6.6449    0.0000 C   0  0
    7.8537   -6.2296    0.0000 O   0  0
    6.4289   -7.8828    0.0000 C   0  0
    7.1351   -7.4758    0.0000 C   0  0
    6.4289   -5.4112    0.0000 C   0  0
   15.5675   -7.0645    0.0000 C   0  0
   13.5736   -6.2296    0.0000 C   0  0
    5.7186   -7.4758    0.0000 C   0  0
   12.1530   -6.2296    0.0000 C   0  0
    5.0000   -6.2379    0.0000 C   0  0
    8.5682   -6.6449    0.0000 C   0  0
   14.3047   -7.4591    0.0000 C   0  0
   11.4344   -6.6449    0.0000 C   0  0
    9.2868   -6.2296    0.0000 C   0  0
    9.9971   -6.6449    0.0000 C   0  0
   10.7157   -6.2296    0.0000 C   0  0
   15.0815   -7.7250    0.0000 C   0  0
    5.7186   -5.0000    0.0000 C   0  0
    5.0000   -5.4112    0.0000 C   0  0
  2  1  1  0
  3  6  1  0
  4  1  2  0
  5 14  1  0
  6 12  1  0
  7  2  1  0
  8  9  1  0
  9  2  2  0
 10  1  1  0
 11  3  1  0
 12  5  1  0
 13  4  1  0
 14 18  1  0
 15  4  1  0
 16  7  1  0
 17  6  1  0
 18 21  1  0
 19 16  1  0
 20 19  1  0
 21 20  1  0
 22 17  1  0
 23 10  2  0
 24 23  1  0
  8 13  2  0
 24 15  2  0
 11 22  1  0
M  END
> <COMPOUND_ID>
DNDI1417404

$$$$

  SciTegic04051205032D

 25 28  0  0  0  0            999 V2000
    7.7809   -5.4163    0.0000 C   0  0
    6.3863   -5.4121    0.0000 C   0  0
    7.7851   -6.2156    0.0000 C   0  0
    6.3863   -6.2156    0.0000 C   0  0
    7.0857   -6.6194    0.0000 C   0  0
    6.3821   -8.6219    0.0000 N   0  0
    7.0690   -9.8208    0.0000 C   0  0
    7.0857   -7.4229    0.0000 C   0  0
    8.4720   -5.0000    0.0000 C   0  0
    5.6869   -5.0000    0.0000 C   0  0
    8.4803   -6.6153    0.0000 C   0  0
    5.6869   -6.6194    0.0000 C   0  0
    7.7601  -10.2205    0.0000 C   0  0
    6.3863   -7.8184    0.0000 C   0  0
    7.0732   -9.0132    0.0000 C   0  0
    8.4595   -9.8208    0.0000 C   0  0
    7.7601  -11.0323    0.0000 C   0  0
    7.7726   -8.6177    0.0000 C   0  0
    5.0000   -6.2156    0.0000 C   0  0
    9.1714   -6.2156    0.0000 C   0  0
    9.1714   -5.4121    0.0000 C   0  0
    5.0000   -5.4121    0.0000 C   0  0
    9.1464  -10.2205    0.0000 C   0  0
    8.4553  -11.4361    0.0000 C   0  0
    9.1464  -11.0364    0.0000 C   0  0
  2  1  1  0
  3  1  1  0
  4  2  1  0
  5  3  1  0
  6 14  1  0
  7 15  1  0
  8  5  1  0
  9  1  2  0
 10  2  2  0
 11  3  2  0
 12  4  2  0
 13  7  1  0
 14  8  1  0
 15  6  1  0
 16 13  1  0
 17 13  2  0
 18 15  1  0
 19 12  1  0
 20 21  2  0
 21  9  1  0
 22 10  1  0
 23 16  2  0
 24 17  1  0
 25 24  2  0
  4  5  1  0
 20 11  1  0
 19 22  2  0
 25 23  1  0
M  END
> <COMPOUND_ID>
DNDI1417405

$$$$

  SciTegic04051205032D

 25 27  0  0  0  0            999 V2000
    8.5014   -7.4701    0.0000 C   0  0  2  0  0  0
    9.2124   -7.0584    0.0000 C   0  0
    8.5014   -8.2935    0.0000 C   0  0  2  0  0  0
    9.9235   -7.4701    0.0000 C   0  0
    7.7862   -8.7051    0.0000 C   0  0  2  0  0  0
   10.6346   -7.0584    0.0000 C   0  0
    9.2124   -6.2350    0.0000 C   0  0
    9.2124   -8.7051    0.0000 C   0  0
   10.6346   -6.2350    0.0000 C   0  0
    9.9235   -8.2935    0.0000 C   0  0
    7.1915   -9.2873    0.0000 C   0  0
    9.9235   -5.8234    0.0000 C   0  0
    6.3889   -9.0669    0.0000 N   0  0
    7.7862   -7.0584    0.0000 C   0  0
   11.3624   -5.8234    0.0000 C   0  0
    8.4973   -6.6467    0.0000 C   0  0
    7.0667   -8.2935    0.0000 C   0  0
    7.0667   -7.4701    0.0000 C   0  0
    7.9983   -9.4994    0.0000 C   0  0
    5.8026   -9.6408    0.0000 C   0  0
   11.3624   -5.0000    0.0000 C   0  0
   12.0817   -6.2350    0.0000 C   0  0
    6.0147  -10.4392    0.0000 C   0  0
    5.0000   -9.4287    0.0000 C   0  0
    8.5014   -9.1168    0.0000 H   0  0
  2  1  1  0
  3  1  1  0
  4  2  2  0
  5  3  1  0
  6  4  1  0
  7  2  1  0
  8  3  1  0
  9 12  1  0
 10  4  1  0
  5 11  1  6
 12  7  2  0
 13 11  1  0
 14  1  1  0
 15  9  1  0
  1 16  1  1
 17 18  1  0
 18 14  1  0
  5 19  1  1
 20 13  1  0
 21 15  1  0
 22 15  1  0
 23 20  1  0
 24 20  1  0
 17  5  1  0
 10  8  1  0
  9  6  2  0
  3 25  1  6
M  END
> <COMPOUND_ID>
DNDI1417406

$$$$

  SciTegic04051205032D

 19 20  0  0  0  0            999 V2000
    7.2785   -6.6507    0.0000 C   0  0
    6.5699   -6.2380    0.0000 N   0  0
    8.7584   -6.6132    0.0000 N   0  0
    9.4712   -6.2005    0.0000 C   0  0
    8.0581   -6.2088    0.0000 O   0  0
   10.1799   -6.6090    0.0000 C   0  0
    7.2660   -7.5512    0.0000 O   0  0
    5.1650   -5.4084    0.0000 O   0  0
   10.8844   -6.2005    0.0000 C   0  0
   10.1799   -7.4261    0.0000 C   0  0
    9.4712   -5.3876    0.0000 N   0  0
   11.5972   -7.4261    0.0000 C   0  0
   11.5930   -6.6090    0.0000 C   0  0
   10.8844   -7.8346    0.0000 C   0  0
   12.2976   -7.8263    0.0000 Br  0  0
    5.8653   -6.6382    0.0000 C   0  0
    6.5824   -5.4127    0.0000 C   0  0
    5.1567   -6.2255    0.0000 C   0  0
    5.8695   -5.0000    0.0000 C   0  0
  2  1  1  0
  3  5  1  0
  4  3  2  0
  5  1  1  0
  6  4  1  0
  7  1  2  0
  8 19  1  0
  9  6  2  0
 10  6  1  0
 11  4  1  0
 12 14  1  0
 13  9  1  0
 14 10  2  0
 15 12  1  0
 16  2  1  0
 17  2  1  0
 18 16  1  0
 19 17  1  0
 18  8  1  0
 12 13  2  0
M  END
> <COMPOUND_ID>
DNDI1417407

$$$$

  SciTegic04051205032D

 24 26  0  0  0  0            999 V2000
    8.6515   -8.1839    0.0000 N   0  0
    9.4663   -8.0154    0.0000 C   0  0
    9.8755   -8.7306    0.0000 N   0  0
    9.3253   -9.3391    0.0000 N   0  0
    8.5723   -9.0056    0.0000 C   0  0
    5.7151   -9.0056    0.0000 C   0  0
    5.7151   -8.1804    0.0000 C   0  0
    9.7964   -7.2555    0.0000 C   0  0
    7.8538   -9.4182    0.0000 C   0  0
    6.4268   -7.7678    0.0000 C   0  0
    5.0000   -9.4182    0.0000 O   0  0
    6.4268   -9.4182    0.0000 N   0  0
    9.3116   -6.5919    0.0000 C   0  0
   10.6181   -7.1730    0.0000 C   0  0
    6.4268   -6.9426    0.0000 C   0  0
    7.1455   -9.0056    0.0000 C   0  0
   10.4669   -5.7530    0.0000 C   0  0
    9.6485   -5.8389    0.0000 C   0  0
   10.9517   -6.4200    0.0000 C   0  0
    7.1455   -6.5300    0.0000 F   0  0
   10.8073   -5.0000    0.0000 F   0  0
    5.0000   -7.7678    0.0000 C   0  0
    5.0000   -6.9426    0.0000 C   0  0
    5.7151   -6.5300    0.0000 C   0  0
  2  1  2  0
  3  2  1  0
  4  5  2  0
  5  1  1  0
  6 12  1  0
  7  6  1  0
  8  2  1  0
  9  5  1  0
 10  7  2  0
 11  6  2  0
 12 16  1  0
 13  8  2  0
 14  8  1  0
 15 10  1  0
 16  9  1  0
 17 19  1  0
 18 13  1  0
 19 14  2  0
 20 15  1  0
 21 17  1  0
 22  7  1  0
 23 22  2  0
 24 23  1  0
  3  4  1  0
 18 17  2  0
 24 15  2  0
M  END
> <COMPOUND_ID>
DNDI1417408

$$$$

  SciTegic04051205032D

 23 25  0  0  0  0            999 V2000
    7.6788   -6.6937    0.0000 C   0  0
    7.2056   -6.0298    0.0000 C   0  0
    7.2056   -7.3692    0.0000 S   0  0
   10.9758   -8.1018    0.0000 C   0  0
    6.4310   -6.2892    0.0000 C   0  0
    6.4310   -7.1135    0.0000 C   0  0
   11.3994   -8.8001    0.0000 C   0  0
   10.1515   -8.1018    0.0000 C   0  0
    8.5030   -6.6708    0.0000 C   0  0
    8.9266   -7.3882    0.0000 N   0  0
   11.3765   -7.3882    0.0000 C   0  0
   12.2236   -8.8001    0.0000 C   0  0
    9.7509   -7.3882    0.0000 N   0  0
    9.7509   -8.8001    0.0000 O   0  0
    7.4803   -5.2475    0.0000 O   0  0
   12.6243   -8.1018    0.0000 C   0  0
   10.9758   -9.5328    0.0000 O   0  0
   12.2007   -7.3692    0.0000 C   0  0
    5.7212   -5.8695    0.0000 C   0  0
   13.4485   -8.1018    0.0000 O   0  0
    5.7212   -7.5370    0.0000 C   0  0
    5.0000   -6.2702    0.0000 C   0  0
    5.0000   -7.1288    0.0000 C   0  0
  2  1  2  0
  3  1  1  0
  4  8  1  0
  5  2  1  0
  6  3  1  0
  7  4  2  0
  8 13  1  0
  9  1  1  0
 10  9  2  0
 11  4  1  0
 12  7  1  0
 13 10  1  0
 14  8  2  0
 15  2  1  0
 16 18  1  0
 17  7  1  0
 18 11  2  0
 19  5  1  0
 20 16  1  0
 21  6  1  0
 22 19  2  0
 23 21  2  0
  5  6  2  0
 23 22  1  0
 16 12  2  0
M  END
> <COMPOUND_ID>
DNDI1417409

$$$$

  SciTegic04051205032D

 23 25  0  0  0  0            999 V2000
   12.5367   -6.0659    0.0000 S   0  0
    7.4351   -6.7432    0.0000 C   0  0
    6.6167   -6.6185    0.0000 C   0  0
    8.7479   -6.2155    0.0000 N   0  0
   11.7100   -5.9330    0.0000 C   0  0
    9.2589   -5.5674    0.0000 N   0  0
    7.9378   -6.0951    0.0000 C   0  0
   12.4204   -6.8802    0.0000 O   0  0
   12.6572   -5.2476    0.0000 O   0  0
    6.0932   -7.2624    0.0000 N   0  0
    6.3051   -5.8541    0.0000 C   0  0
   13.3468   -6.1823    0.0000 N   0  0
    7.6345   -5.3223    0.0000 C   0  0
    6.8244   -5.2060    0.0000 C   0  0
   11.2032   -6.5811    0.0000 C   0  0
   11.4109   -5.1728    0.0000 C   0  0
   10.0815   -5.6962    0.0000 C   0  0
   10.3806   -6.4523    0.0000 C   0  0
   10.5925   -5.0481    0.0000 C   0  0
    5.4950   -5.7212    0.0000 O   0  0
    7.7342   -7.5117    0.0000 C   0  0
    6.3924   -8.0269    0.0000 C   0  0
    7.2232   -8.1473    0.0000 C   0  0
  2  7  1  0
  3  2  2  0
  4  6  2  0
  5  1  1  0
  6 17  1  0
  7  4  1  0
  8  1  2  0
  9  1  2  0
 10  3  1  0
 11 14  2  0
 12  1  1  0
 13  7  2  0
 14 13  1  0
 15  5  2  0
 16  5  1  0
 17 19  1  0
 18 15  1  0
 19 16  2  0
 20 11  1  0
 21  2  1  0
 22 23  1  0
 23 21  2  0
 17 18  2  0
 11  3  1  0
 10 22  2  0
M  END
> <COMPOUND_ID>
DNDI1417410

$$$$

  SciTegic04051205032D

 23 25  0  0  0  0            999 V2000
    8.1772   -8.1639    0.0000 S   0  0
    9.5523   -7.7701    0.0000 C   0  0
    8.9749   -8.3609    0.0000 N   0  0
   10.3666   -7.9704    0.0000 C   0  0
    7.4063   -7.9604    0.0000 C   0  0
    9.3320   -6.9858    0.0000 C   0  0
    7.9837   -8.9749    0.0000 O   0  0
    8.3674   -7.3696    0.0000 O   0  0
   10.9474   -7.3829    0.0000 C   0  0
   10.5902   -8.7714    0.0000 N   0  0
    9.9027   -6.3917    0.0000 C   0  0
   10.7237   -6.5853    0.0000 C   0  0
    6.8189   -8.5544    0.0000 C   0  0
    7.1793   -7.1760    0.0000 C   0  0
    6.0179   -8.3541    0.0000 C   0  0
    6.3817   -6.9858    0.0000 C   0  0
    5.8010   -7.5531    0.0000 C   0  0
    9.6891   -5.5640    0.0000 O   0  0
   11.7450   -7.5832    0.0000 C   0  0
   11.3745   -8.9749    0.0000 C   0  0
    5.0000   -7.3829    0.0000 C   0  0
   10.2832   -5.0000    0.0000 C   0  0
   11.9586   -8.3775    0.0000 C   0  0
  2  3  1  0
  3  1  1  0
  4  2  1  0
  5  1  1  0
  6  2  2  0
  7  1  2  0
  8  1  2  0
  9  4  1  0
 10  4  2  0
 11  6  1  0
 12 11  2  0
 13  5  1  0
 14  5  2  0
 15 13  2  0
 16 14  1  0
 17 16  2  0
 18 11  1  0
 19  9  2  0
 20 10  1  0
 21 17  1  0
 22 18  1  0
 23 20  2  0
 17 15  1  0
 12  9  1  0
 23 19  1  0
M  END
> <COMPOUND_ID>
DNDI1417411

$$$$

  SciTegic04051205032D

 24 25  0  0  0  0            999 V2000
    6.3802   -6.0438    0.0000 C   0  0
    5.6901   -6.4419    0.0000 N   0  0
    7.0702   -6.4419    0.0000 C   0  0
    9.3661   -9.2110    0.0000 C   0  0
    8.5698   -9.2022    0.0000 C   0  0
    9.7730   -8.5121    0.0000 C   0  0
    7.7603   -6.0438    0.0000 C   0  0
    9.3749   -7.8221    0.0000 C   0  0
    9.3749   -6.4419    0.0000 N   0  0
    5.0000   -6.0438    0.0000 C   0  0
    6.3802   -5.2475    0.0000 C   0  0
    5.0000   -5.2475    0.0000 C   0  0
    8.1717   -9.8923    0.0000 N   0  0
    8.4504   -6.4419    0.0000 N   0  0
    8.1717   -8.5121    0.0000 C   0  0
    8.5786   -7.8221    0.0000 C   0  0
    7.7603   -5.2475    0.0000 O   0  0
    9.7730   -7.1320    0.0000 C   0  0
   10.5605   -8.5210    0.0000 O   0  0
    5.6901   -7.2381    0.0000 C   0  0
    7.3755   -9.8923    0.0000 C   0  0
    8.5698  -10.5824    0.0000 C   0  0
    6.9773  -10.5779    0.0000 C   0  0
    8.1717  -11.2680    0.0000 C   0  0
  2  1  1  0
  3  1  1  0
  4  6  2  0
  5 15  2  0
  6  8  1  0
  7  3  1  0
  8 18  1  0
  9 14  1  0
 10  2  1  0
 11  1  2  0
 12 11  1  0
 13  5  1  0
 14  7  1  0
 15 16  1  0
 16  8  2  0
 17  7  2  0
 18  9  2  0
 19  6  1  0
 20  2  1  0
 21 13  1  0
 22 13  1  0
 23 21  1  0
 24 22  1  0
 10 12  2  0
  5  4  1  0
M  END
> <COMPOUND_ID>
DNDI1417412

$$$$

  SciTegic04051205032D

 22 25  0  0  0  0            999 V2000
    9.5120   -7.7972    0.0000 S   0  0
    7.6997   -5.9307    0.0000 C   0  0
    8.8496   -7.2972    0.0000 C   0  0
    9.1120   -6.5223    0.0000 C   0  0
    7.2122   -5.2474    0.0000 N   0  0
    7.2122   -6.5973    0.0000 N   0  0
   10.1661   -7.3222    0.0000 C   0  0
    8.5163   -5.9432    0.0000 S   0  0
    9.9161   -6.5223    0.0000 C   0  0
    6.4290   -6.3306    0.0000 C   0  0
    6.4415   -5.5099    0.0000 C   0  0
   10.0911   -8.3804    0.0000 O   0  0
    8.9162   -8.3804    0.0000 O   0  0
    7.4289   -7.3930    0.0000 C   0  0
   10.4786   -5.9224    0.0000 C   0  0
   10.9785   -7.4972    0.0000 C   0  0
    5.7124   -6.7431    0.0000 C   0  0
    5.7291   -5.0933    0.0000 C   0  0
   11.2910   -6.0973    0.0000 C   0  0
    5.0000   -6.3223    0.0000 C   0  0
   11.5409   -6.8931    0.0000 C   0  0
    5.0125   -5.4974    0.0000 C   0  0
  2  8  1  0
  3  1  1  0
  4  3  2  0
  5  2  2  0
  6  2  1  0
  7  1  1  0
  8  4  1  0
  9  7  2  0
 10  6  1  0
 11  5  1  0
 12  1  2  0
 13  1  2  0
 14  6  1  0
 15  9  1  0
 16  7  1  0
 17 10  1  0
 18 11  1  0
 19 21  1  0
 20 17  2  0
 21 16  2  0
 22 18  2  0
  9  4  1  0
 19 15  2  0
 11 10  2  0
 22 20  1  0
M  END
> <COMPOUND_ID>
DNDI1417413

$$$$

  SciTegic04051205032D

 23 26  0  0  0  0            999 V2000
    7.8646   -7.3175    0.0000 C   0  0
    7.1397   -7.7207    0.0000 C   0  0
    6.4303   -7.2942    0.0000 C   0  0
    7.1397   -8.5347    0.0000 O   0  0
    6.4303   -6.4802    0.0000 C   0  0
    7.1552   -6.0732    0.0000 C   0  0
    8.5856   -8.5347    0.0000 N   0  0
    7.8839   -6.4802    0.0000 C   0  0
    8.5856   -7.7207    0.0000 C   0  0
    7.8646   -8.9494    0.0000 C   0  0
    5.7016   -7.6974    0.0000 N   0  0
   10.0392  -10.1937    0.0000 C   0  0
   10.0392  -11.0116    0.0000 C   0  0
    7.1552   -5.2475    0.0000 Cl  0  0
    9.3143   -8.9494    0.0000 C   0  0
    9.3143   -9.7867    0.0000 C   0  0
    5.7016   -6.0732    0.0000 C   0  0
    5.0000   -7.2942    0.0000 C   0  0
   10.7485   -9.7867    0.0000 C   0  0
   10.7679  -11.4186    0.0000 C   0  0
    5.0000   -6.4957    0.0000 C   0  0
   11.4695  -10.1937    0.0000 C   0  0
   11.4695  -11.0116    0.0000 C   0  0
  2  1  2  0
  3  2  1  0
  4  2  1  0
  5  6  1  0
  6  8  2  0
  7  9  1  0
  8  1  1  0
  9  1  1  0
 10  7  1  0
 11  3  1  0
 12 16  1  0
 13 12  2  0
 14  6  1  0
 15  7  1  0
 16 15  1  0
 17  5  1  0
 18 11  2  0
 19 12  1  0
 20 13  1  0
 21 17  2  0
 22 19  1  0
 23 22  1  0
 10  4  1  0
  5  3  2  0
 21 18  1  0
 23 20  1  0
M  END
> <COMPOUND_ID>
DNDI1417414

$$$$

  SciTegic04051205032D

 23 24  0  0  0  0            999 V2000
    8.1914   -8.2987    0.0000 N   0  0
    8.1914   -7.4782    0.0000 C   0  0
    8.8994   -9.5357    0.0000 C   0  0
    8.9036   -8.7152    0.0000 N   0  0
    8.1789   -9.9480    0.0000 N   0  0
    8.9036   -7.0574    0.0000 C   0  0
    7.4750   -7.0658    0.0000 C   0  0
   11.0402   -5.8204    0.0000 C   0  0
   10.3280   -6.2370    0.0000 C   0  0
    9.6158   -7.4740    0.0000 C   0  0
    8.8994   -6.2370    0.0000 C   0  0
    9.6033   -5.8204    0.0000 C   0  0
   10.3280   -7.0574    0.0000 C   0  0
    7.4750   -6.2370    0.0000 C   0  0
    6.7544   -7.4782    0.0000 C   0  0
    9.6033   -9.9522    0.0000 N   0  0
    6.0422   -6.2370    0.0000 C   0  0
    6.0422   -7.0658    0.0000 C   0  0
    6.7544   -5.8204    0.0000 C   0  0
    5.3300   -5.8288    0.0000 Cl  0  0
   11.2527   -6.6201    0.0000 C   0  0
   11.7525   -6.2370    0.0000 C   0  0
   11.0402   -5.0000    0.0000 C   0  0
  2  1  2  0
  3  4  1  0
  4  1  1  0
  5  3  2  0
  6  2  1  0
  7  2  1  0
  8  9  1  0
  9 13  2  0
 10  6  2  0
 11  6  1  0
 12 11  2  0
 13 10  1  0
 14  7  1  0
 15  7  2  0
 16  3  1  0
 17 19  1  0
 18 15  1  0
 19 14  2  0
 20 17  1  0
 21  8  1  0
 22  8  1  0
 23  8  1  0
 17 18  2  0
  9 12  1  0
M  END
> <COMPOUND_ID>
DNDI1417415

$$$$

  SciTegic04051205032D

 24 26  0  0  0  0            999 V2000
    7.3118   -7.4762    0.0000 C   0  0
    7.3118   -8.2997    0.0000 C   0  0
    6.5953   -8.7100    0.0000 N   0  0
    5.8902   -7.4762    0.0000 N   0  0
    5.8902   -8.2997    0.0000 C   0  0
    8.0168   -7.0631    0.0000 N   0  0
    6.5953   -7.0631    0.0000 C   0  0
    8.0168   -8.7100    0.0000 N   0  0
    8.7247   -7.4762    0.0000 C   0  0
    8.7247   -8.2997    0.0000 N   0  0
    9.4384   -7.0631    0.0000 C   0  0
   10.1579   -7.4762    0.0000 C   0  0
   10.8745   -7.0631    0.0000 C   0  0
    5.1650   -8.7013    0.0000 O   0  0
    6.5953   -6.2396    0.0000 O   0  0
   10.8745   -6.2280    0.0000 C   0  0
    9.4384   -6.2280    0.0000 C   0  0
   10.1579   -5.8119    0.0000 C   0  0
    5.1650   -7.0631    0.0000 C   0  0
    8.0168   -9.5335    0.0000 C   0  0
   11.5968   -7.4791    0.0000 O   0  0
   11.5882   -5.8235    0.0000 O   0  0
   12.3076   -7.0631    0.0000 C   0  0
   11.5882   -5.0000    0.0000 C   0  0
  2  1  1  0
  3  2  2  0
  4  7  1  0
  5  4  1  0
  6  1  2  0
  7  1  1  0
  8  2  1  0
  9  6  1  0
 10  9  2  0
 11  9  1  0
 12 11  1  0
 13 12  2  0
 14  5  2  0
 15  7  2  0
 16 18  2  0
 17 11  2  0
 18 17  1  0
 19  4  1  0
 20  8  1  0
 21 13  1  0
 22 16  1  0
 23 21  1  0
 24 22  1  0
  3  5  1  0
  8 10  1  0
 16 13  1  0
M  END
> <COMPOUND_ID>
DNDI1417416

$$$$

  SciTegic04051205032D

 25 28  0  0  0  0            999 V2000
    9.2939   -8.7291    0.0000 C   0  0
   10.7129   -9.5557    0.0000 N   0  0
   10.0103   -8.3111    0.0000 C   0  0
    9.2939   -9.5557    0.0000 C   0  0
    8.5637   -8.3065    0.0000 N   0  0
   10.7129   -8.7291    0.0000 C   0  0
    9.9965   -9.9552    0.0000 C   0  0
    5.6981   -5.8266    0.0000 C   0  0
    8.5637   -7.4799    0.0000 N   0  0
    6.4283   -6.2400    0.0000 C   0  0
    5.0000   -6.2400    0.0000 O   0  0
    7.1447   -5.8266    0.0000 C   0  0
    6.4283   -7.0666    0.0000 C   0  0
    7.8473   -7.0666    0.0000 C   0  0
    5.6981   -5.0000    0.0000 O   0  0
    7.1447   -7.4799    0.0000 C   0  0
    7.8473   -6.2400    0.0000 C   0  0
    8.5775   -9.9552    0.0000 C   0  0
   10.0103   -7.4845    0.0000 C   0  0
   11.4293   -8.3111    0.0000 C   0  0
    9.9965  -10.7818    0.0000 C   0  0
    8.5775  -10.7818    0.0000 C   0  0
   10.7129   -7.0666    0.0000 C   0  0
   11.4293   -7.4845    0.0000 C   0  0
    9.2939  -11.2089    0.0000 C   0  0
  2  7  1  0
  3  1  2  0
  4  1  1  0
  5  1  1  0
  6  3  1  0
  7  4  1  0
  8 10  1  0
  9  5  1  0
 10 12  2  0
 11  8  2  0
 12 17  1  0
 13 16  2  0
 14  9  1  0
 15  8  1  0
 16 14  1  0
 17 14  2  0
 18  4  2  0
 19  3  1  0
 20  6  1  0
 21  7  2  0
 22 18  1  0
 23 19  2  0
 24 23  1  0
 25 22  2  0
  6  2  2  0
 25 21  1  0
 24 20  2  0
 13 10  1  0
M  END
> <COMPOUND_ID>
DNDI1417417

$$$$

  SciTegic04051205032D

 24 27  0  0  0  0            999 V2000
    8.5784   -7.0693    0.0000 C   0  0
    8.5716   -6.2443    0.0000 C   0  0
    9.3622   -7.3203    0.0000 N   0  0
    9.8434   -6.6431    0.0000 C   0  0
    9.3553   -5.9831    0.0000 N   0  0
    7.8566   -7.4818    0.0000 N   0  0
    7.1450   -6.2443    0.0000 N   0  0
    7.1450   -7.0728    0.0000 C   0  0
    7.8566   -5.8284    0.0000 C   0  0
   10.6203   -6.3819    0.0000 N   0  0
    9.8297   -5.3162    0.0000 C   0  0
   11.2941   -6.8596    0.0000 C   0  0
    6.4266   -7.4887    0.0000 O   0  0
   12.0469   -6.5090    0.0000 C   0  0
    7.8566   -5.0000    0.0000 O   0  0
   10.6169   -5.5569    0.0000 C   0  0
   12.2119   -5.7046    0.0000 O   0  0
   12.7619   -6.9181    0.0000 C   0  0
   13.0197   -5.6050    0.0000 C   0  0
   13.3703   -6.3578    0.0000 C   0  0
    6.4300   -5.8318    0.0000 C   0  0
    7.8566   -8.3103    0.0000 C   0  0
    5.7150   -6.2443    0.0000 C   0  0
    5.0000   -5.8421    0.0000 C   0  0
  2  1  2  0
  3  1  1  0
  4  3  2  0
  5  2  1  0
  6  1  1  0
  7  8  1  0
  8  6  1  0
  9  2  1  0
 10  4  1  0
 11  5  1  0
 12 10  1  0
 13  8  2  0
 14 12  1  0
 15  9  2  0
 16 10  1  0
 17 14  1  0
 18 14  2  0
 19 17  1  0
 20 18  1  0
 21  7  1  0
 22  6  1  0
 23 21  1  0
 24 23  1  0
  9  7  1  0
  5  4  1  0
 11 16  1  0
 20 19  2  0
M  END
> <COMPOUND_ID>
DNDI1417418

$$$$

  SciTegic04051205032D

 24 26  0  0  0  0            999 V2000
    9.7277   -6.5928    0.0000 N   0  0
   10.7078   -5.5454    0.0000 N   0  0
    9.9150   -5.7952    0.0000 C   0  0
   11.1354   -6.9219    0.0000 N   0  0
   10.3354   -7.1717    0.0000 C   0  0
   11.3179   -6.1075    0.0000 C   0  0
    9.0262   -6.8330    0.0000 O   0  0
    6.9819   -7.4095    0.0000 C   0  0
    9.3265   -5.2475    0.0000 N   0  0
    7.7698   -7.2173    0.0000 C   0  0
   12.0746   -5.8697    0.0000 N   0  0
    6.4005   -6.7633    0.0000 C   0  0
    9.0622   -7.6161    0.0000 C   0  0
    8.3656   -7.8347    0.0000 C   0  0
    9.6940   -7.6450    0.0000 C   0  0
   10.7078   -7.8828    0.0000 C   0  0
    6.7440   -8.2287    0.0000 C   0  0
    7.3302   -8.8437    0.0000 C   0  0
    8.1374   -8.6443    0.0000 C   0  0
    5.5957   -6.9603    0.0000 C   0  0
    6.6551   -5.9441    0.0000 C   0  0
    5.0000   -6.3309    0.0000 C   0  0
    6.0762   -5.3219    0.0000 C   0  0
    5.2594   -5.5237    0.0000 C   0  0
  2  3  2  0
  3  1  1  0
  4  5  1  0
  5  1  1  0
  6  2  1  0
  7  1  1  0
  8 10  2  0
  9  3  1  0
 10 14  1  0
 11  6  1  0
 12  8  1  0
 13  7  1  0
 14 13  1  0
 15  5  1  0
 16  5  1  0
 17 18  2  0
 18 19  1  0
 19 14  2  0
 20 12  1  0
 21 12  1  0
 22 20  1  0
 23 21  1  0
 24 23  1  0
  6  4  2  0
 17  8  1  0
 24 22  1  0
M  END
> <COMPOUND_ID>
DNDI1417419

$$$$

  SciTegic04051205032D

 22 24  0  0  0  0            999 V2000
    8.1746   -7.1023    0.0000 C   0  0
    6.8165   -7.5342    0.0000 C   0  0
    7.8747   -8.4941    0.0000 N   0  0
    7.3708   -6.9248    0.0000 C   0  0
    8.7217   -6.4785    0.0000 C   0  0
    6.0078   -7.3567    0.0000 C   0  0
    7.0732   -8.3189    0.0000 C   0  0
    8.4362   -7.8822    0.0000 C   0  0
    9.5304   -6.6416    0.0000 C   0  0
    5.7439   -6.5648    0.0000 C   0  0
   10.6150   -7.4143    0.0000 S   0  0
    5.9023   -5.2475    0.0000 S   0  0
    9.7943   -7.4215    0.0000 C   0  0
    6.3054   -5.9577    0.0000 C   0  0
    7.1260   -6.1305    0.0000 O   0  0
    5.0936   -5.4059    0.0000 C   0  0
   10.8693   -6.6296    0.0000 C   0  0
    5.0000   -6.2313    0.0000 C   0  0
   10.1902   -6.1521    0.0000 C   0  0
    8.1194   -9.2763    0.0000 C   0  0
    7.5723   -9.8882    0.0000 C   0  0
    8.9305   -9.4563    0.0000 C   0  0
  2  4  1  0
  3  8  1  0
  4  1  1  0
  5  1  2  0
  6  2  2  0
  7  3  1  0
  8  1  1  0
  9  5  1  0
 10  6  1  0
 11 13  1  0
 12 14  1  0
 13  9  2  0
 14 10  2  0
 15  4  2  0
 16 18  2  0
 17 19  2  0
 18 10  1  0
 19  9  1  0
 20  3  1  0
 21 20  1  0
 22 20  1  0
  2  7  1  0
 11 17  1  0
 12 16  1  0
M  END
> <COMPOUND_ID>
DNDI1417420

$$$$

  SciTegic04051205032D

 23 25  0  0  0  0            999 V2000
    7.8579   -7.4788    0.0000 C   0  0
    7.8579   -6.6460    0.0000 C   0  0
    7.1709   -8.7166    0.0000 N   0  0
    7.1709   -7.8838    0.0000 C   0  0
    7.1709   -6.2410    0.0000 C   0  0
    8.5740   -6.2410    0.0000 O   0  0
    8.5740   -7.8838    0.0000 C   0  0
    7.1709  -10.3432    0.0000 O   0  0
    6.4321   -6.6687    0.0000 C   0  0
    7.1709   -5.4277    0.0000 C   0  0
    5.7161   -5.4277    0.0000 C   0  0
    6.4549   -5.0227    0.0000 C   0  0
    5.7161   -6.2410    0.0000 C   0  0
    5.0000   -5.0000    0.0000 Cl  0  0
    7.8805   -9.1216    0.0000 C   0  0
    6.4549   -9.1216    0.0000 C   0  0
    7.8805   -9.9544    0.0000 C   0  0
    6.4549   -9.9349    0.0000 C   0  0
    9.2998   -7.4658    0.0000 C   0  0
    8.5740   -8.7166    0.0000 C   0  0
    9.2771   -9.1216    0.0000 C   0  0
   10.0159   -7.8838    0.0000 C   0  0
   10.0159   -8.7166    0.0000 C   0  0
  2  1  1  0
  3  4  1  0
  4  1  1  0
  5  2  1  0
  6  2  2  0
  7  1  1  0
  8 17  1  0
  9  5  1  0
 10  5  2  0
 11 13  1  0
 12 10  1  0
 13  9  2  0
 14 11  1  0
 15  3  1  0
 16  3  1  0
 17 15  1  0
 18 16  1  0
 19  7  1  0
 20  7  2  0
 21 20  1  0
 22 19  2  0
 23 21  2  0
  8 18  1  0
 11 12  2  0
 23 22  1  0
M  END
> <COMPOUND_ID>
DNDI1417421

$$$$

  SciTegic04051205032D

 23 25  0  0  0  0            999 V2000
    9.2880   -6.2455    0.0000 N   0  0
   10.0027   -5.8192    0.0000 C   0  0
    8.5734   -5.8400    0.0000 C   0  0
    7.8712   -6.2580    0.0000 N   0  0
   10.7299   -6.2329    0.0000 N   0  0
   10.0027   -5.0000    0.0000 O   0  0
    7.1523   -5.8568    0.0000 C   0  0
    9.3006   -7.0730    0.0000 C   0  0
   10.7257   -7.0562    0.0000 C   0  0
    8.5859   -7.4867    0.0000 C   0  0
   10.7132   -8.6904    0.0000 C   0  0
    7.8712   -7.0855    0.0000 C   0  0
   10.7048   -9.5179    0.0000 Cl  0  0
    6.4377   -6.2705    0.0000 C   0  0
   11.4278   -7.4617    0.0000 C   0  0
   10.0110   -7.4574    0.0000 C   0  0
   10.0027   -8.2766    0.0000 C   0  0
   11.4278   -8.2766    0.0000 C   0  0
    5.7147   -5.8568    0.0000 C   0  0
    6.4377   -7.1064    0.0000 C   0  0
    5.0000   -6.2789    0.0000 C   0  0
    5.7147   -7.5201    0.0000 C   0  0
    5.0000   -7.1064    0.0000 C   0  0
  2  1  1  0
  3  1  1  0
  4  3  1  0
  5  2  1  0
  6  2  2  0
  7  4  1  0
  8  1  1  0
  9  5  1  0
 10  8  1  0
 11 17  2  0
 12 10  1  0
 13 11  1  0
 14  7  1  0
 15  9  1  0
 16  9  2  0
 17 16  1  0
 18 15  2  0
 19 14  2  0
 20 14  1  0
 21 19  1  0
 22 20  2  0
 23 22  1  0
  4 12  1  0
 18 11  1  0
 21 23  2  0
M  END
> <COMPOUND_ID>
DNDI1417422

$$$$

  SciTegic04051205032D

 23 24  0  0  0  0            999 V2000
    7.1439   -6.2472    0.0000 C   0  0
    6.4327   -6.6595    0.0000 C   0  0
    7.1439   -5.4226    0.0000 C   0  0
    7.8654   -6.6698    0.0000 C   0  0
    5.7215   -6.2472    0.0000 N   0  0
    7.8619   -7.4944    0.0000 C   0  0
    9.2843   -7.4944    0.0000 C   0  0
    8.5663   -7.9067    0.0000 C   0  0
    6.4327   -5.0104    0.0000 C   0  0
    5.7215   -5.4226    0.0000 C   0  0
    8.5663   -8.7313    0.0000 N   0  0
    6.4327   -7.4841    0.0000 O   0  0
    8.5766   -6.2575    0.0000 O   0  0
    9.7001   -8.2159    0.0000 F   0  0
    8.8652   -6.7729    0.0000 F   0  0
    9.9990   -7.0821    0.0000 F   0  0
    7.8654   -5.0069    0.0000 C   0  0
    7.8551   -9.1332    0.0000 C   0  0
    9.2775   -9.1332    0.0000 C   0  0
    5.0000   -5.0000    0.0000 C   0  0
    9.2740   -9.9578    0.0000 C   0  0
    7.8516   -9.9543    0.0000 C   0  0
    8.5560  -10.3701    0.0000 C   0  0
  2  1  1  0
  3  1  2  0
  4  1  1  0
  5  2  1  0
  6  4  1  0
  7  8  1  0
  8  6  1  0
  9  3  1  0
 10  9  2  0
 11  8  1  0
 12  2  2  0
 13  4  2  0
 14  7  1  0
 15  7  1  0
 16  7  1  0
 17  3  1  0
 18 11  1  0
 19 11  1  0
 20 10  1  0
 21 19  1  0
 22 18  1  0
 23 21  1  0
  5 10  1  0
 22 23  1  0
M  END
> <COMPOUND_ID>
DNDI1417423

$$$$

  SciTegic04051205032D

 24 25  0  0  0  0            999 V2000
    6.3779   -6.3941    0.0000 N   0  0
    6.9800   -6.0077    0.0000 N   0  0
    5.7534   -6.0077    0.0000 C   0  0
    5.7534   -5.3670    0.0000 C   0  0
    6.9800   -5.3670    0.0000 C   0  0
    6.3779   -7.2118    0.0000 C   0  0
    7.0797   -7.5821    0.0000 N   0  0
    7.0797   -8.3708    0.0000 N   0  0
    6.3779   -8.7797    0.0000 C   0  0
    8.7120  -10.0288    0.0000 C   0  0
    7.0347   -9.9773    0.0000 N   0  0
    9.3913   -9.5491    0.0000 C   0  0
    6.3876   -9.5588    0.0000 N   0  0
    7.8943   -9.5749    0.0000 C   0  0
    5.6793   -7.5981    0.0000 C   0  0
    9.3817   -8.6445    0.0000 O   0  0
    5.6922   -8.3998    0.0000 C   0  0
    5.0290   -5.0000    0.0000 C   0  0
    5.0000   -6.2813    0.0000 C   0  0
   10.2059   -9.9838    0.0000 O   0  0
    7.6915   -5.0000    0.0000 C   0  0
    7.9039   -8.7346    0.0000 C   0  0
   11.0204   -9.5588    0.0000 C   0  0
   11.7126   -9.9677    0.0000 C   0  0
  2  1  1  0
  3  1  1  0
  4  3  2  0
  5  2  2  0
  6  1  1  0
  7  6  1  0
  8  7  2  0
  9  8  1  0
 10 14  1  0
 11 13  1  0
 12 10  1  0
 13  9  1  0
 14 11  2  0
 15  6  2  0
 16 12  2  0
 17 15  1  0
 18  4  1  0
 19  3  1  0
 20 12  1  0
 21  5  1  0
 22 14  1  0
 23 20  1  0
 24 23  1  0
  5  4  1  0
  9 17  2  0
M  END
> <COMPOUND_ID>
DNDI1417424

$$$$

  SciTegic04051205032D

 24 27  0  0  0  0            999 V2000
    9.3458   -7.1925    0.0000 C   0  0
    9.2251   -6.3703    0.0000 N   0  0
   10.1647   -7.3164    0.0000 S   0  0
    7.9951   -7.6003    0.0000 N   0  0
    7.4241   -8.2104    0.0000 C   0  0
    9.9527   -5.9951    0.0000 C   0  0
    8.7944   -7.7863    0.0000 N   0  0
   10.5400   -6.5856    0.0000 C   0  0
    6.6248   -8.0212    0.0000 C   0  0
    6.0440   -8.6084    0.0000 N   0  0
    7.6623   -9.0000    0.0000 C   0  0
   10.1647   -5.2153    0.0000 C   0  0
   11.3295   -6.3703    0.0000 C   0  0
    5.2545   -8.4258    0.0000 C   0  0
    6.3703   -7.2088    0.0000 C   0  0
    8.4649   -9.2055    0.0000 C   0  0
    7.0946   -9.6101    0.0000 C   0  0
    5.0000   -7.6297    0.0000 C   0  0
   10.9511   -5.0000    0.0000 C   0  0
   11.5481   -5.5775    0.0000 C   0  0
    8.7161   -9.9918    0.0000 C   0  0
    5.5840   -7.0261    0.0000 C   0  0
    7.3295  -10.3834    0.0000 C   0  0
    8.1517  -10.5889    0.0000 C   0  0
  2  1  2  0
  3  1  1  0
  4  7  1  0
  5  4  2  0
  6  2  1  0
  7  1  1  0
  8  3  1  0
  9  5  1  0
 10  9  2  0
 11  5  1  0
 12  6  1  0
 13  8  1  0
 14 10  1  0
 15  9  1  0
 16 11  1  0
 17 11  2  0
 18 22  1  0
 19 12  2  0
 20 13  2  0
 21 16  2  0
 22 15  2  0
 23 17  1  0
 24 23  2  0
  6  8  2  0
 19 20  1  0
 24 21  1  0
 18 14  2  0
M  END
> <COMPOUND_ID>
DNDI1417425

$$$$

  SciTegic04051205032D

 25 28  0  0  0  0            999 V2000
    7.1560   -7.5987    0.0000 C   0  0
    7.8504   -8.8046    0.0000 N   0  0
    6.4576   -8.8005    0.0000 N   0  0
    7.8504   -8.0006    0.0000 C   0  0
    6.4617   -7.9925    0.0000 C   0  0
    7.1560   -6.7947    0.0000 C   0  0
    8.5447   -9.2025    0.0000 C   0  0
    7.8869   -6.4617    0.0000 C   0  0
    6.5632   -6.4536    0.0000 C   0  0
    8.5447  -10.0105    0.0000 N   0  0
    6.3480   -5.6619    0.0000 C   0  0
    8.0574   -5.6497    0.0000 C   0  0
    9.2390   -8.8005    0.0000 N   0  0
    7.5174   -5.0000    0.0000 C   0  0
    6.7175   -5.0609    0.0000 C   0  0
    8.5528   -7.5987    0.0000 C   0  0
    5.7633   -7.5946    0.0000 C   0  0
    8.4919   -7.0140    0.0000 C   0  0
    5.9988   -7.0181    0.0000 C   0  0
    8.8492   -5.3939    0.0000 C   0  0
    5.5684   -5.4548    0.0000 C   0  0
    9.2877   -6.7623    0.0000 C   0  0
    5.2152   -6.8150    0.0000 C   0  0
    5.0000   -6.0354    0.0000 C   0  0
    9.4582   -5.9461    0.0000 C   0  0
  2  4  1  0
  3  5  2  0
  4  1  2  0
  5  1  1  0
  6  1  1  0
  7  2  1  0
  8  6  1  0
  9  6  1  0
 10  7  2  0
 11  9  1  0
 12  8  2  0
 13  7  1  0
 14 12  1  0
 15 11  1  0
 16  4  1  0
 17  5  1  0
 18  8  1  0
 19  9  2  0
 20 12  1  0
 21 11  2  0
 22 18  2  0
 23 19  1  0
 24 23  2  0
 25 22  1  0
  3  2  1  0
 14 15  1  0
 25 20  2  0
 24 21  1  0
M  END
> <COMPOUND_ID>
DNDI1417426

$$$$

  SciTegic04051205032D

 22 24  0  0  0  0            999 V2000
    7.0987   -6.6729    0.0000 N   0  0
    7.5362   -7.3671    0.0000 C   0  0
    7.6305   -6.0545    0.0000 C   0  0
    8.4009   -6.3558    0.0000 C   0  0
    8.3301   -7.1628    0.0000 S   0  0
    6.2707   -6.6702    0.0000 C   0  0
    5.7624   -6.0152    0.0000 N   0  0
    9.0952   -5.9209    0.0000 C   0  0
    5.7991   -7.3488    0.0000 S   0  0
    7.2192   -8.1427    0.0000 N   0  0
    7.4393   -5.2475    0.0000 O   0  0
    5.0000   -6.2982    0.0000 C   0  0
   11.2751   -7.1209    0.0000 C   0  0
    5.0000   -7.1025    0.0000 C   0  0
   12.0244   -7.4746    0.0000 N   0  0
    9.8288   -6.3217    0.0000 C   0  0
   11.2436   -6.3217    0.0000 C   0  0
   10.5546   -7.5532    0.0000 C   0  0
   10.5283   -5.8921    0.0000 C   0  0
    9.8288   -7.1471    0.0000 C   0  0
   12.7188   -7.0004    0.0000 C   0  0
   12.0847   -8.2973    0.0000 C   0  0
  2  1  1  0
  3  1  1  0
  4  3  1  0
  5  2  1  0
  6  1  1  0
  7  6  2  0
  8  4  2  0
  9  6  1  0
 10  2  2  0
 11  3  2  0
 12  7  1  0
 13 18  2  0
 14  9  1  0
 15 13  1  0
 16  8  1  0
 17 19  2  0
 18 20  1  0
 19 16  1  0
 20 16  2  0
 21 15  1  0
 22 15  1  0
  5  4  1  0
 14 12  2  0
 13 17  1  0
M  END
> <COMPOUND_ID>
DNDI1417427

$$$$

  SciTegic04051205032D

 23 25  0  0  0  0            999 V2000
    6.2597   -5.8748    0.0000 N   0  0
   11.9546   -7.3180    0.0000 C   0  0
    5.1650   -6.5144    0.0000 N   0  0
    5.1773   -5.2475    0.0000 N   0  0
    5.8948   -6.5144    0.0000 C   0  0
    5.8948   -5.2475    0.0000 C   0  0
    7.0018   -5.8748    0.0000 N   0  0
   11.1265   -7.3180    0.0000 C   0  0
   12.3728   -6.6005    0.0000 C   0  0
   12.3728   -8.0396    0.0000 C   0  0
    7.4200   -6.5882    0.0000 C   0  0
   10.7164   -6.6005    0.0000 O   0  0
    8.2483   -6.5882    0.0000 C   0  0
    9.8882   -6.5882    0.0000 C   0  0
   11.9546   -8.7407    0.0000 Cl  0  0
   11.9669   -5.8831    0.0000 F   0  0
    8.6582   -7.3057    0.0000 C   0  0
    8.6582   -5.8748    0.0000 C   0  0
    9.4823   -7.3057    0.0000 C   0  0
    9.4823   -5.8831    0.0000 C   0  0
   13.6111   -7.3180    0.0000 C   0  0
   13.2052   -8.0396    0.0000 C   0  0
   13.2052   -6.5882    0.0000 C   0  0
  2  8  1  0
  3  5  2  0
  4  6  2  0
  5  1  1  0
  6  1  1  0
  7  1  1  0
  8 12  1  0
  9  2  1  0
 10  2  2  0
 11  7  2  0
 12 14  1  0
 13 11  1  0
 14 20  1  0
 15 10  1  0
 16  9  1  0
 17 13  2  0
 18 13  1  0
 19 17  1  0
 20 18  2  0
 21 22  2  0
 22 10  1  0
 23  9  2  0
  4  3  1  0
 19 14  2  0
 21 23  1  0
M  END
> <COMPOUND_ID>
DNDI1417428

$$$$

  SciTegic04051205032D

 23 25  0  0  0  0            999 V2000
    7.8333   -7.3360    0.0000 C   0  0
    8.5396   -7.7250    0.0000 C   0  0
    7.8333   -6.4918    0.0000 C   0  0
    7.1215   -7.7250    0.0000 C   0  0
    7.1215   -6.1028    0.0000 C   0  0
    9.2486   -7.3360    0.0000 C   0  0
    8.5396   -8.5747    0.0000 C   0  0
    6.4208   -7.3360    0.0000 C   0  0
    6.4208   -6.4918    0.0000 C   0  0
    9.9521   -8.5747    0.0000 C   0  0
    9.9521   -7.7250    0.0000 C   0  0
    9.2486   -8.9637    0.0000 C   0  0
    7.1215   -8.5747    0.0000 O   0  0
    7.1215   -5.2475    0.0000 O   0  0
    7.8333   -9.0023    0.0000 O   0  0
    8.5396   -6.0669    0.0000 Cl  0  0
    9.2486   -6.4918    0.0000 O   0  0
    5.7090   -7.7250    0.0000 C   0  0
    5.7090   -6.1028    0.0000 C   0  0
   10.1341   -9.4437    0.0000 C   0  0
   10.7522   -8.4505    0.0000 C   0  0
    5.0000   -7.3360    0.0000 C   0  0
    5.0000   -6.4918    0.0000 C   0  0
  2  1  1  0
  3  1  2  0
  4  1  1  0
  5  3  1  0
  6  2  2  0
  7  2  1  0
  8  4  1  0
  9  5  1  0
 10 11  1  0
 11  6  1  0
 12  7  1  0
 13  4  2  0
 14  5  2  0
 15  7  2  0
 16  3  1  0
 17  6  1  0
 18  8  1  0
 19  9  1  0
 20 10  1  0
 21 10  1  0
 22 18  2  0
 23 19  2  0
  9  8  2  0
 10 12  1  0
 23 22  1  0
M  END
> <COMPOUND_ID>
DNDI1417429

$$$$

  SciTegic04051205032D

 16 17  0  0  0  0            999 V2000
    7.9338   -6.7003    0.0000 C   0  0
    8.4064   -7.3747    0.0000 C   0  0
    7.1595   -6.9597    0.0000 C   0  0
    7.9338   -8.0375    0.0000 N   0  0
    7.1595   -7.7820    0.0000 C   0  0
    8.6351   -6.2622    0.0000 C   0  0
    6.4390   -6.5447    0.0000 C   0  0
    9.2345   -7.3977    0.0000 O   0  0
    6.4390   -8.1989    0.0000 C   0  0
    8.5909   -5.4438    0.0000 C   0  0
    8.0260   -5.8818    0.0000 O   0  0
    7.8742   -5.0518    0.0000 O   0  0
    5.7205   -6.9597    0.0000 C   0  0
    5.7205   -7.7820    0.0000 C   0  0
    5.0000   -6.5447    0.0000 I   0  0
    9.3037   -5.0000    0.0000 C   0  0
  2  1  1  0
  3  1  1  0
  4  2  1  0
  5  3  2  0
  6  1  1  0
  7  3  1  0
  8  2  2  0
  9  5  1  0
 10  6  1  0
 11  1  1  0
 12 10  2  0
 13  7  2  0
 14 13  1  0
 15 13  1  0
 16 10  1  0
  4  5  1  0
 14  9  2  0
M  END
> <COMPOUND_ID>
DNDI1417430

$$$$

  SciTegic04051205032D

 22 25  0  0  0  0            999 V2000
    7.8628   -8.6596    0.0000 C   0  0
    6.4265   -8.6596    0.0000 C   0  0
    7.8628   -7.8333    0.0000 C   0  0
    6.4265   -7.8333    0.0000 C   0  0
    7.1471   -9.0728    0.0000 O   0  0
    7.1471   -7.4201    0.0000 C   0  0
    5.7108   -7.4226    0.0000 C   0  0
    8.5736   -7.4226    0.0000 C   0  0
    8.5736   -9.0728    0.0000 N   0  0
    5.7182   -9.0728    0.0000 N   0  0
    5.0000   -7.8357    0.0000 N   0  0
    9.2892   -7.8333    0.0000 N   0  0
    5.0000   -8.6596    0.0000 C   0  0
    9.2892   -8.6621    0.0000 C   0  0
    7.3241   -6.6134    0.0000 C   0  0
    8.5736   -6.6011    0.0000 Cl  0  0
    5.7182   -6.6011    0.0000 Cl  0  0
    6.7118   -6.0600    0.0000 C   0  0
    8.1087   -6.3625    0.0000 C   0  0
    6.8888   -5.2631    0.0000 C   0  0
    8.2858   -5.5509    0.0000 C   0  0
    7.6734   -5.0000    0.0000 C   0  0
  2  5  1  0
  3  1  2  0
  4  2  1  0
  5  1  1  0
  6  3  1  0
  7  4  2  0
  8  3  1  0
  9  1  1  0
 10  2  2  0
 11 13  2  0
 12 14  1  0
 13 10  1  0
 14  9  2  0
 15  6  1  0
 16  8  1  0
 17  7  1  0
 18 15  1  0
 19 15  2  0
 20 18  2  0
 21 19  1  0
 22 21  2  0
  6  4  1  0
  8 12  2  0
 11  7  1  0
 22 20  1  0
M  END
> <COMPOUND_ID>
DNDI1417431

$$$$

  SciTegic04051205032D

 21 22  0  0  0  0            999 V2000
    7.1253   -7.5242    0.0000 C   0  0
    7.1253   -6.7032    0.0000 C   0  0
    6.4091   -6.2810    0.0000 C   0  0
    6.4091   -7.9317    0.0000 C   0  0
   12.1561   -6.2460    0.0000 N   0  0
    5.7133   -7.5242    0.0000 C   0  0
    5.7133   -6.7032    0.0000 C   0  0
   13.5769   -5.4222    0.0000 N   0  0
    7.8415   -7.9434    0.0000 Cl  0  0
    5.0000   -7.9317    0.0000 Cl  0  0
    7.8415   -6.2694    0.0000 O   0  0
   11.4283   -6.6653    0.0000 C   0  0
   12.1445   -5.4222    0.0000 C   0  0
   12.8607   -6.6537    0.0000 C   0  0
    6.4091   -5.4571    0.0000 C   0  0
   12.8607   -5.0000    0.0000 C   0  0
   13.5769   -6.2460    0.0000 C   0  0
    8.5693   -6.6770    0.0000 C   0  0
   10.7150   -6.2577    0.0000 C   0  0
    9.2885   -6.2694    0.0000 C   0  0
   10.0017   -6.6770    0.0000 C   0  0
  2  1  2  0
  3  2  1  0
  4  1  1  0
  5 12  1  0
  6  4  2  0
  7  6  1  0
  8 16  1  0
  9  1  1  0
 10  6  1  0
 11  2  1  0
 12 19  1  0
 13  5  1  0
 14  5  1  0
 15  3  1  0
 16 13  1  0
 17 14  1  0
 18 11  1  0
 19 21  1  0
 20 18  1  0
 21 20  1  0
  7  3  2  0
  8 17  1  0
M  END
> <COMPOUND_ID>
DNDI1417432

$$$$

  SciTegic04051205032D

 24 25  0  0  0  0            999 V2000
    6.4369   -6.6501    0.0000 C   0  0
    7.8395   -7.4717    0.0000 C   0  0
   10.0362   -7.8395    0.0000 N   0  0
    8.5546   -7.8774    0.0000 C   0  0
    6.4335   -7.4614    0.0000 C   0  0
    7.1382   -6.2513    0.0000 C   0  0
   10.7444   -7.4270    0.0000 C   0  0
    7.8533   -6.6604    0.0000 C   0  0
    7.1348   -7.8739    0.0000 C   0  0
    9.3384   -7.4408    0.0000 O   0  0
    8.5408   -8.7780    0.0000 O   0  0
   12.8689   -8.6542    0.0000 N   0  0
   11.4560   -7.8395    0.0000 C   0  0
   10.7444   -6.6260    0.0000 N   0  0
    5.7322   -6.2238    0.0000 O   0  0
    7.1520   -5.4194    0.0000 O   0  0
    5.7219   -7.8739    0.0000 O   0  0
   12.8689   -7.8395    0.0000 C   0  0
   12.1573   -9.0737    0.0000 C   0  0
   12.1573   -7.4270    0.0000 C   0  0
   11.4560   -8.6612    0.0000 C   0  0
    5.0000   -6.6398    0.0000 C   0  0
    6.4369   -5.0000    0.0000 C   0  0
    5.7116   -8.6921    0.0000 C   0  0
  2  8  1  0
  3 10  1  0
  4  2  1  0
  5  1  2  0
  6  1  1  0
  7  3  2  0
  8  6  2  0
  9  5  1  0
 10  4  1  0
 11  4  2  0
 12 19  1  0
 13  7  1  0
 14  7  1  0
 15  1  1  0
 16  6  1  0
 17  5  1  0
 18 20  1  0
 19 21  2  0
 20 13  2  0
 21 13  1  0
 22 15  1  0
 23 16  1  0
 24 17  1  0
  2  9  2  0
 18 12  2  0
M  END
> <COMPOUND_ID>
DNDI1417433

$$$$

  SciTegic04051205032D

 25 28  0  0  0  0            999 V2000
    7.7191   -8.3929    0.0000 C   0  0
    7.2241   -9.0563    0.0000 N   0  0
    7.2207   -7.7088    0.0000 C   0  0
    6.4231   -7.9804    0.0000 C   0  0
    6.4231   -8.8088    0.0000 C   0  0
    6.7566   -7.0419    0.0000 C   0  0
    7.9976   -7.4475    0.0000 C   0  0
    8.5338   -8.3929    0.0000 O   0  0
    5.7219   -9.2213    0.0000 C   0  0
    5.9248   -7.0969    0.0000 C   0  0
    7.1072   -6.2960    0.0000 C   0  0
    8.6163   -7.9975    0.0000 C   0  0
    8.1694   -6.6466    0.0000 C   0  0
    5.7219   -7.5576    0.0000 C   0  0
    9.5651   -6.9422    0.0000 C   0  0
    5.8216   -5.6807    0.0000 C   0  0
    9.3966   -7.7329    0.0000 C   0  0
    5.4710   -6.4300    0.0000 C   0  0
    8.9326   -6.3922    0.0000 C   0  0
    6.6363   -5.6119    0.0000 C   0  0
   10.3454   -6.6604    0.0000 O   0  0
    5.3506   -5.0000    0.0000 O   0  0
    5.0000   -7.9804    0.0000 C   0  0
    5.0000   -8.8088    0.0000 C   0  0
    5.7219  -10.0429    0.0000 C   0  0
  2  1  1  0
  3  1  1  0
  4  3  1  0
  5  2  1  0
  6  3  1  0
  7  3  1  0
  8  1  2  0
  9  5  2  0
 10  6  1  0
 11  6  2  0
 12  7  2  0
 13  7  1  0
 14  4  2  0
 15 19  1  0
 16 20  2  0
 17 12  1  0
 18 10  2  0
 19 13  2  0
 20 11  1  0
 21 15  1  0
 22 16  1  0
 23 14  1  0
 24  9  1  0
 25  9  1  0
  5  4  1  0
 17 15  2  0
 16 18  1  0
 23 24  2  0
M  END
> <COMPOUND_ID>
DNDI1417434

$$$$

  SciTegic04051205032D

 23 26  0  0  0  0            999 V2000
    8.9696   -7.0110    0.0000 N   0  0
    8.5791   -7.6690    0.0000 C   0  0
    7.4476   -7.0110    0.0000 N   0  0
    8.5791   -6.3591    0.0000 N   0  0
    7.8268   -6.3591    0.0000 C   0  0
    9.7137   -7.0110    0.0000 C   0  0
   10.0950   -6.3591    0.0000 C   0  0
   10.8699   -6.3591    0.0000 O   0  0
   10.1196   -7.6690    0.0000 C   0  0
   11.2450   -7.0110    0.0000 C   0  0
   10.8699   -7.6690    0.0000 C   0  0
   11.2542   -5.7319    0.0000 O   0  0
    8.9696   -8.3424    0.0000 S   0  0
    7.4629   -5.6734    0.0000 C   0  0
   10.0950   -5.7319    0.0000 C   0  0
   11.2542   -8.3424    0.0000 O   0  0
    6.6881   -7.0110    0.0000 C   0  0
    6.6419   -5.6734    0.0000 C   0  0
    6.2146   -6.3745    0.0000 C   0  0
    6.2146   -5.0000    0.0000 C   0  0
    5.4121   -5.0000    0.0000 C   0  0
    5.4121   -6.3745    0.0000 C   0  0
    5.0000   -5.6734    0.0000 C   0  0
  2  1  1  0
  3  2  1  0
  4  1  1  0
  5  4  2  0
  6  1  1  0
  7  6  1  0
  8  7  1  0
  9  6  1  0
 10 11  1  0
 11  9  1  0
 12 15  1  0
 13  2  2  0
 14  5  1  0
 15  7  1  0
 16 11  2  0
 17  3  1  0
 18 14  1  0
 19 18  2  0
 20 18  1  0
 21 20  2  0
 22 19  1  0
 23 21  1  0
  5  3  1  0
 10  8  1  0
 10 12  1  0
 22 23  2  0
M  END
> <COMPOUND_ID>
DNDI1417435

$$$$

  SciTegic04051205032D

 25 28  0  0  0  0            999 V2000
   11.3063   -7.5090    0.0000 N   0  0
   10.5274   -7.0520    0.0000 C   0  0
   10.5274   -6.2507    0.0000 C   0  0
   11.9879   -7.0520    0.0000 C   0  0
   11.3063   -5.8313    0.0000 C   0  0
   11.9879   -6.2058    0.0000 C   0  0
    6.4380   -6.6925    0.0000 C   0  0
    9.8084   -5.8313    0.0000 C   0  0
    7.0672   -6.1533    0.0000 C   0  0
    9.8084   -7.5090    0.0000 C   0  0
    7.8536   -6.4678    0.0000 C   0  0
    8.4827   -5.9586    0.0000 O   0  0
    9.1343   -6.2058    0.0000 C   0  0
    5.6291   -6.4004    0.0000 C   0  0
    9.1343   -7.0520    0.0000 C   0  0
   12.6769   -7.5090    0.0000 C   0  0
   12.6769   -6.7301    0.0000 C   0  0
   11.3063   -5.0298    0.0000 C   0  0
    6.0785   -5.0000    0.0000 C   0  0
    6.8649   -5.2921    0.0000 C   0  0
    6.5728   -7.4789    0.0000 C   0  0
    5.4269   -5.5991    0.0000 C   0  0
    5.0000   -6.9248    0.0000 C   0  0
    5.9437   -8.0182    0.0000 C   0  0
    5.1798   -7.7261    0.0000 C   0  0
  2  1  1  0
  3  2  2  0
  4  1  1  0
  5  6  1  0
  6  4  1  0
  7  9  1  0
  8  3  1  0
  9 11  1  0
 10  2  1  0
 11 12  1  0
 12 13  1  0
 13 15  1  0
 14  7  2  0
 15 10  2  0
 16  4  1  0
 17  4  1  0
 18  5  1  0
 19 20  1  0
 20  9  2  0
 21  7  1  0
 22 19  2  0
 23 14  1  0
 24 21  2  0
 25 24  1  0
  5  3  1  0
 13  8  2  0
 22 14  1  0
 25 23  2  0
M  END
> <COMPOUND_ID>
DNDI1417436

$$$$

  SciTegic04051205032D

 25 28  0  0  0  0            999 V2000
    7.3742   -6.8618    0.0000 C   0  0
    8.2114   -6.5078    0.0000 C   0  0
    6.6744   -6.5495    0.0000 C   0  0
    8.6821   -7.0993    0.0000 C   0  0
    8.4988   -5.8080    0.0000 C   0  0
    6.4870   -5.6914    0.0000 C   0  0
    9.4235   -6.9910    0.0000 C   0  0
    8.0240   -5.0624    0.0000 C   0  0
    9.2361   -5.7080    0.0000 C   0  0
    7.1076   -5.0000    0.0000 C   0  0
    7.3742   -7.7241    0.0000 O   0  0
    9.7067   -6.2870    0.0000 C   0  0
    7.3617   -9.4485    0.0000 N   0  0
    6.6245   -8.1489    0.0000 C   0  0
    6.0247   -7.1368    0.0000 C   0  0
    8.3989   -7.7865    0.0000 C   0  0
    6.6203   -9.0194    0.0000 C   0  0
    5.6498   -5.4248    0.0000 C   0  0
    7.3617  -10.3065    0.0000 C   0  0
    8.1115   -9.0194    0.0000 C   0  0
    9.8859   -7.5824    0.0000 C   0  0
    5.1874   -6.8660    0.0000 C   0  0
    8.8570   -8.3821    0.0000 C   0  0
    5.0000   -6.0079    0.0000 C   0  0
    9.6068   -8.2697    0.0000 C   0  0
  2  1  1  0
  3  1  1  0
  4  2  1  0
  5  2  2  0
  6  3  2  0
  7  4  1  0
  8  5  1  0
  9  5  1  0
 10  6  1  0
 11  1  1  0
 12  9  2  0
 13 17  1  0
 14 11  1  0
 15  3  1  0
 16  4  2  0
 17 14  1  0
 18  6  1  0
 19 13  1  0
 20 13  1  0
 21  7  2  0
 22 15  2  0
 23 16  1  0
 24 22  1  0
 25 23  2  0
 10  8  1  0
 24 18  2  0
 12  7  1  0
 25 21  1  0
M  END
> <COMPOUND_ID>
DNDI1417437

$$$$

  SciTegic04051205032D

 23 25  0  0  0  0            999 V2000
    8.3623   -6.6192    0.0000 C   0  0
    9.1496   -6.3579    0.0000 C   0  0
    8.1801   -7.4099    0.0000 C   0  0
    7.7606   -6.0554    0.0000 C   0  0
    7.3928   -7.6746    0.0000 C   0  0
    6.9665   -6.2857    0.0000 C   0  0
    6.7843   -7.1108    0.0000 C   0  0
    9.3214   -5.5603    0.0000 N   0  0
    9.7752   -6.9320    0.0000 C   0  0
   10.5385   -6.6811    0.0000 C   0  0
    9.5896   -7.7159    0.0000 C   0  0
   10.9716   -8.0253    0.0000 C   0  0
    8.7164   -5.0000    0.0000 C   0  0
    7.2174   -8.4791    0.0000 O   0  0
    5.9798   -7.3343    0.0000 O   0  0
   10.1946   -8.2763    0.0000 C   0  0
   11.1504   -7.2414    0.0000 C   0  0
   11.5973   -8.5719    0.0000 Cl  0  0
    7.9291   -5.2372    0.0000 C   0  0
    6.4095   -8.7301    0.0000 C   0  0
    5.7873   -8.1387    0.0000 C   0  0
    6.2308   -9.5277    0.0000 C   0  0
    5.0000   -8.3553    0.0000 C   0  0
  2  1  1  0
  3  1  1  0
  4  1  2  0
  5  3  2  0
  6  4  1  0
  7  6  2  0
  8  2  1  0
  9  2  1  0
 10  9  1  0
 11  9  2  0
 12 16  2  0
 13 19  1  0
 14  5  1  0
 15  7  1  0
 16 11  1  0
 17 10  2  0
 18 12  1  0
 19  4  1  0
 20 14  1  0
 21 15  1  0
 22 20  1  0
 23 21  1  0
 13  8  1  0
  7  5  1  0
 17 12  1  0
M  END
> <COMPOUND_ID>
DNDI1417438

$$$$

  SciTegic04051205032D

 16 16  0  0  0  0            999 V2000
    9.4571   -6.8845    0.0000 N   0  0
    8.0274   -6.8845    0.0000 C   0  0
   10.1734   -6.4791    0.0000 C   0  0
    8.7407   -6.4666    0.0000 O   0  0
    7.3142   -6.4791    0.0000 C   0  0
    8.0274   -7.7108    0.0000 O   0  0
    6.6009   -6.8971    0.0000 C   0  0
    7.3047   -5.6528    0.0000 C   0  0
   10.1734   -5.6528    0.0000 N   0  0
   10.8930   -6.8971    0.0000 C   0  0
    5.8814   -5.6528    0.0000 C   0  0
    6.5853   -5.2475    0.0000 C   0  0
    5.8814   -6.4791    0.0000 C   0  0
    5.1650   -5.2475    0.0000 I   0  0
   10.8930   -7.7108    0.0000 C   0  0
   11.6094   -6.4791    0.0000 C   0  0
  2  4  1  0
  3  1  2  0
  4  1  1  0
  5  2  1  0
  6  2  2  0
  7  5  2  0
  8  5  1  0
  9  3  1  0
 10  3  1  0
 11 12  1  0
 12  8  2  0
 13  7  1  0
 14 11  1  0
 15 10  1  0
 16 10  1  0
 11 13  2  0
M  END
> <COMPOUND_ID>
DNDI1417439

$$$$

  SciTegic04051205032D

 25 28  0  0  0  0            999 V2000
    7.7239   -6.6802    0.0000 C   0  0
    7.3257   -5.9620    0.0000 C   0  0
    7.1731   -7.2830    0.0000 N   0  0
    8.5648   -6.6802    0.0000 N   0  0
    6.5219   -6.1332    0.0000 C   0  0
    6.4252   -6.9369    0.0000 C   0  0
    7.7239   -5.2475    0.0000 N   0  0
    8.9555   -5.9620    0.0000 C   0  0
    8.5648   -5.2475    0.0000 N   0  0
   10.2170   -6.6802    0.0000 N   0  0
   11.4525   -7.3872    0.0000 C   0  0
    9.7965   -5.9620    0.0000 N   0  0
   11.0283   -6.6802    0.0000 C   0  0
    5.6661   -7.2681    0.0000 C   0  0
   12.2748   -7.3872    0.0000 C   0  0
    5.8558   -5.6569    0.0000 C   0  0
   12.7028   -6.6616    0.0000 O   0  0
   11.0283   -8.0942    0.0000 C   0  0
    5.0930   -5.9843    0.0000 C   0  0
    5.0000   -6.7844    0.0000 C   0  0
   11.4525   -5.9620    0.0000 C   0  0
    5.5767   -8.1091    0.0000 C   0  0
   12.6879   -8.0942    0.0000 C   0  0
   11.4525   -8.8050    0.0000 C   0  0
   12.2748   -8.8050    0.0000 C   0  0
  2  1  1  0
  3  1  1  0
  4  1  2  0
  5  2  1  0
  6  3  1  0
  7  2  2  0
  8  4  1  0
  9  8  2  0
 10 12  1  0
 11 13  1  0
 12  8  1  0
 13 10  2  0
 14  6  1  0
 15 11  2  0
 16  5  1  0
 17 15  1  0
 18 11  1  0
 19 16  2  0
 20 14  2  0
 21 13  1  0
 22 14  1  0
 23 15  1  0
 24 18  2  0
 25 24  1  0
  6  5  2  0
  9  7  1  0
 20 19  1  0
 25 23  2  0
M  END
> <COMPOUND_ID>
DNDI1417440

$$$$

  SciTegic04051205032D

 24 27  0  0  0  0            999 V2000
    6.5722   -8.4599    0.0000 C   0  0
    6.9686   -9.8494    0.0000 N   0  0
    5.5580   -9.4915    0.0000 N   0  0
    7.1722   -9.0424    0.0000 C   0  0
    5.7650   -8.6845    0.0000 C   0  0
    6.1581  -10.0740    0.0000 C   0  0
    6.7932   -7.6423    0.0000 C   0  0
    7.6108   -7.4212    0.0000 C   0  0
    8.1968   -8.0177    0.0000 C   0  0
    7.8354   -6.6106    0.0000 C   0  0
    8.6389   -6.4071    0.0000 C   0  0
    9.0073   -7.7967    0.0000 C   0  0
    9.2284   -7.0036    0.0000 C   0  0
    5.9581  -10.9021    0.0000 S   0  0
    7.6704   -8.9230    0.0000 O   0  0
    5.1650   -8.1019    0.0000 O   0  0
    7.2423   -6.0141    0.0000 C   0  0
    7.9722   -8.8178    0.0000 C   0  0
    8.8635   -5.6001    0.0000 C   0  0
    9.5899   -8.4142    0.0000 C   0  0
    7.4775   -5.2245    0.0000 C   0  0
    8.5582   -9.4248    0.0000 C   0  0
    8.2845   -5.0000    0.0000 C   0  0
    9.3652   -9.2037    0.0000 C   0  0
  2  4  1  0
  3  5  1  0
  4  1  1  0
  5  1  1  0
  6  3  1  0
  7  1  2  0
  8  7  1  0
  9  8  1  0
 10  8  2  0
 11 10  1  0
 12  9  2  0
 13 12  1  0
 14  6  2  0
 15  4  2  0
 16  5  2  0
 17 10  1  0
 18  9  1  0
 19 11  1  0
 20 12  1  0
 21 17  2  0
 22 18  2  0
 23 21  1  0
 24 22  1  0
  6  2  1  0
 13 11  2  0
 24 20  2  0
 23 19  2  0
M  END
> <COMPOUND_ID>
DNDI1417441

$$$$

  SciTegic04051205032D

 23 26  0  0  0  0            999 V2000
    7.8950   -8.5488    0.0000 N   0  0
    8.7276   -7.4288    0.0000 N   0  0
    7.9029   -7.6827    0.0000 C   0  0
    8.7119   -8.8204    0.0000 N   0  0
    9.2256   -8.1295    0.0000 N   0  0
    7.1549   -8.7259    0.0000 C   0  0
    8.9992   -6.6120    0.0000 C   0  0
    6.4877   -9.2829    0.0000 C   0  0
    6.1767   -8.4976    0.0000 O   0  0
    6.6097   -8.5960    0.0000 C   0  0
    5.5351   -8.1433    0.0000 C   0  0
    6.0468   -7.7791    0.0000 C   0  0
    9.8416   -6.4486    0.0000 C   0  0
    5.1650   -8.6078    0.0000 O   0  0
    7.2140   -7.1690    0.0000 S   0  0
    5.6315   -9.3282    0.0000 C   0  0
    6.1944   -6.9328    0.0000 O   0  0
   10.1192   -5.6377    0.0000 C   0  0
    8.4324   -5.9782    0.0000 C   0  0
   10.4105   -7.0962    0.0000 C   0  0
    8.7060   -5.1633    0.0000 C   0  0
    9.5504   -5.0000    0.0000 C   0  0
   10.9635   -5.4704    0.0000 C   0  0
  2  3  1  0
  3  1  1  0
  4  1  1  0
  5  4  2  0
  6  1  1  0
  7  2  1  0
  8  6  1  0
  9  8  1  0
 10  6  1  0
 11 12  1  0
 12 10  1  0
 13  7  2  0
 14 16  1  0
 15  3  2  0
 16  8  1  0
 17 12  2  0
 18 13  1  0
 19  7  1  0
 20 13  1  0
 21 19  2  0
 22 21  1  0
 23 18  1  0
  5  2  1  0
 11  9  1  0
 14 11  1  0
 22 18  2  0
M  END
> <COMPOUND_ID>
DNDI1417442

$$$$

  SciTegic04051205032D

 22 24  0  0  0  0            999 V2000
    7.5404   -7.8326    0.0000 C   0  0
    7.8017   -8.6301    0.0000 N   0  0
    6.7188   -7.8463    0.0000 S   0  0
    5.7116  -12.3977    0.0000 C   0  0
    5.7116  -11.5864    0.0000 C   0  0
    7.1313   -9.1148    0.0000 C   0  0
    6.4644   -8.6301    0.0000 C   0  0
    8.0251   -7.1726    0.0000 C   0  0
    6.3785  -12.8789    0.0000 S   0  0
    5.0379  -12.8858    0.0000 C   0  0
    6.1344  -13.6558    0.0000 C   0  0
    7.6779   -6.4163    0.0000 C   0  0
    5.0000  -11.1739    0.0000 O   0  0
    5.2991  -13.6696    0.0000 C   0  0
    6.4198  -11.1739    0.0000 N   0  0
    7.1313   -9.9364    0.0000 C   0  0
    8.1626   -5.7563    0.0000 C   0  0
    6.4198  -10.3489    0.0000 C   0  0
    7.8257   -5.0000    0.0000 F   0  0
    8.8501   -7.2585    0.0000 C   0  0
    9.3348   -6.5882    0.0000 C   0  0
    8.9945   -5.8423    0.0000 C   0  0
  2  1  2  0
  3  1  1  0
  4  5  1  0
  5 15  1  0
  6  2  1  0
  7  3  1  0
  8  1  1  0
  9  4  1  0
 10  4  2  0
 11  9  1  0
 12  8  1  0
 13  5  2  0
 14 10  1  0
 15 18  1  0
 16  6  1  0
 17 12  2  0
 18 16  1  0
 19 17  1  0
 20  8  2  0
 21 20  1  0
 22 21  2  0
  7  6  2  0
 17 22  1  0
 11 14  2  0
M  END
> <COMPOUND_ID>
DNDI1417443

$$$$

  SciTegic04051205032D

 24 27  0  0  0  0            999 V2000
    7.8131   -7.7703    0.0000 N   0  0
    7.0938   -7.3515    0.0000 C   0  0
    8.5111   -7.3837    0.0000 C   0  0
    9.1876   -7.8615    0.0000 S   0  0
    7.0938   -6.5301    0.0000 C   0  0
    9.9552   -7.4804    0.0000 C   0  0
    7.8131   -6.1274    0.0000 C   0  0
   10.0197   -6.6589    0.0000 C   0  0
    6.3958   -7.7703    0.0000 C   0  0
    8.5111   -6.5301    0.0000 C   0  0
    6.3958   -6.1274    0.0000 C   0  0
    9.3164   -6.2080    0.0000 N   0  0
    5.7033   -7.3837    0.0000 C   0  0
   10.7337   -6.3153    0.0000 C   0  0
    5.7033   -6.5301    0.0000 C   0  0
   10.6371   -7.9474    0.0000 C   0  0
    5.0000   -7.8615    0.0000 O   0  0
    7.8347   -5.3060    0.0000 C   0  0
   11.3726   -7.6038    0.0000 C   0  0
    9.3969   -5.3866    0.0000 C   0  0
   11.4370   -6.7663    0.0000 C   0  0
   10.8143   -5.4617    0.0000 C   0  0
    5.0590   -8.6722    0.0000 C   0  0
   10.1217   -5.0000    0.0000 C   0  0
  2  1  1  0
  3  1  2  0
  4  3  1  0
  5  2  2  0
  6  4  1  0
  7 10  2  0
  8  6  1  0
  9  2  1  0
 10  3  1  0
 11  5  1  0
 12  8  2  0
 13  9  2  0
 14  8  1  0
 15 13  1  0
 16  6  2  0
 17 13  1  0
 18  7  1  0
 19 16  1  0
 20 12  1  0
 21 19  2  0
 22 14  2  0
 23 17  1  0
 24 22  1  0
  7  5  1  0
 15 11  2  0
 14 21  1  0
 20 24  2  0
M  END
> <COMPOUND_ID>
DNDI1417444

$$$$

  SciTegic04051205032D

 24 26  0  0  0  0            999 V2000
    7.1623   -6.8965    0.0000 N   0  0
    7.1623   -7.7297    0.0000 C   0  0
    6.4581   -5.6641    0.0000 C   0  0
    6.4581   -6.4799    0.0000 N   0  0
    7.1797   -5.2475    0.0000 N   0  0
    6.4432   -8.1463    0.0000 C   0  0
    5.7414   -5.2475    0.0000 S   0  0
    5.7216   -7.7471    0.0000 N   0  0
    7.8839   -8.1265    0.0000 C   0  0
    7.8839   -5.6641    0.0000 C   0  0
    5.0000   -8.1463    0.0000 C   0  0
    6.4432   -8.9795    0.0000 C   0  0
    7.8839   -8.9597    0.0000 C   0  0
    8.5857   -7.7297    0.0000 C   0  0
    7.8839   -6.4973    0.0000 C   0  0
    8.6006   -5.2624    0.0000 C   0  0
    5.0000   -8.9795    0.0000 C   0  0
    8.5857   -9.3589    0.0000 C   0  0
    9.3048   -8.1265    0.0000 C   0  0
    5.7216   -9.3763    0.0000 C   0  0
    8.5857   -6.9139    0.0000 C   0  0
    9.3222   -5.6641    0.0000 C   0  0
    9.3048   -8.9597    0.0000 C   0  0
    9.3048   -6.4973    0.0000 C   0  0
  2  1  2  0
  3  4  1  0
  4  1  1  0
  5  3  1  0
  6  2  1  0
  7  3  2  0
  8  6  2  0
  9  2  1  0
 10  5  1  0
 11  8  1  0
 12  6  1  0
 13  9  1  0
 14  9  2  0
 15 10  2  0
 16 10  1  0
 17 20  1  0
 18 13  2  0
 19 14  1  0
 20 12  2  0
 21 15  1  0
 22 16  2  0
 23 19  2  0
 24 22  1  0
 23 18  1  0
 17 11  2  0
 24 21  2  0
M  END
> <COMPOUND_ID>
DNDI1417445

$$$$

  SciTegic04051205032D

 25 27  0  0  0  0            999 V2000
    7.9866   -6.5063    0.0000 C   0  0
    9.4187   -6.4835    0.0000 C   0  0
    8.7026   -6.0715    0.0000 C   0  0
    7.2734   -6.1142    0.0000 C   0  0
   10.1261   -6.0602    0.0000 C   0  0
    8.7026   -7.7423    0.0000 C   0  0
    9.4187   -7.3303    0.0000 C   0  0
    7.9866   -7.3303    0.0000 C   0  0
    8.7026   -8.5578    0.0000 C   0  0
    8.7026   -5.2475    0.0000 O   0  0
   12.2743   -6.4722    0.0000 N   0  0
    5.1650   -6.6341    0.0000 N   0  0
   10.8536   -6.4608    0.0000 C   0  0
    6.5678   -6.5603    0.0000 C   0  0
    5.8725   -6.1795    0.0000 C   0  0
   11.5468   -6.0488    0.0000 C   0  0
    8.6060   -9.4159    0.0000 C   0  0
    7.9638   -8.4810    0.0000 C   0  0
    9.5380   -8.6430    0.0000 C   0  0
    5.1565   -7.4269    0.0000 C   0  0
   12.3084   -7.2536    0.0000 C   0  0
   10.8536   -7.3075    0.0000 C   0  0
    6.6113   -7.3957    0.0000 C   0  0
    5.8924   -7.8304    0.0000 C   0  0
   11.5810   -7.6997    0.0000 C   0  0
  2  3  1  0
  3  1  1  0
  4  1  2  0
  5  2  2  0
  6  8  1  0
  7  6  1  0
  8  1  1  0
  9  6  1  0
 10  3  2  0
 11 16  2  0
 12 15  2  0
 13  5  1  0
 14  4  1  0
 15 14  1  0
 16 13  1  0
 17  9  1  0
 18  9  1  0
 19  9  1  0
 20 24  2  0
 21 25  2  0
 22 13  2  0
 23 14  2  0
 24 23  1  0
 25 22  1  0
  7  2  1  0
 20 12  1  0
 21 11  1  0
M  END
> <COMPOUND_ID>
DNDI1417446

$$$$

  SciTegic04051205032D

 25 28  0  0  0  0            999 V2000
    6.4299  -11.1964    0.0000 C   0  0
    7.1469   -9.9612    0.0000 C   0  0
    6.4299  -10.3716    0.0000 C   0  0
    7.8433   -8.7303    0.0000 N   0  0
    7.1469   -9.1448    0.0000 C   0  0
    5.7170  -11.6150    0.0000 N   0  0
    7.1469  -11.6150    0.0000 C   0  0
    7.8599  -10.3716    0.0000 C   0  0
    7.8599  -11.1964    0.0000 C   0  0
    8.5562   -9.1448    0.0000 C   0  0
    7.8433   -7.8847    0.0000 C   0  0
    9.9944   -7.4744    0.0000 C   0  0
    7.1469  -12.4274    0.0000 O   0  0
    9.2774   -7.8847    0.0000 C   0  0
    9.9944   -6.6579    0.0000 C   0  0
    8.5562   -7.4868    0.0000 C   0  0
    9.2774   -8.7303    0.0000 C   0  0
    5.7170   -9.9612    0.0000 C   0  0
    5.0000  -11.1964    0.0000 C   0  0
    9.2774   -6.2434    0.0000 C   0  0
   10.6907   -6.2434    0.0000 C   0  0
    5.0000  -10.3716    0.0000 C   0  0
    9.2525   -5.4269    0.0000 C   0  0
   10.6907   -5.4269    0.0000 C   0  0
    9.9944   -5.0000    0.0000 C   0  0
  2  3  1  0
  3  1  2  0
  4  5  1  0
  5  2  1  0
  6  1  1  0
  7  1  1  0
  8  9  1  0
  9  7  2  0
 10  4  1  0
 11  4  1  0
 12 14  1  0
 13  7  1  0
 14 16  1  0
 15 12  1  0
 16 11  1  0
 17 10  1  0
 18  3  1  0
 19  6  2  0
 20 15  1  0
 21 15  2  0
 22 19  1  0
 23 20  2  0
 24 21  1  0
 25 24  2  0
 22 18  2  0
  8  2  2  0
 14 17  1  0
 25 23  1  0
M  END
> <COMPOUND_ID>
DNDI1417447

$$$$

  SciTegic04051205032D

 24 26  0  0  0  0            999 V2000
    8.5787   -7.4621    0.0000 C   0  0
    7.8766   -6.2434    0.0000 C   0  0
    7.8766   -7.0476    0.0000 N   0  0
    9.2932   -7.0600    0.0000 N   0  0
    8.5787   -5.8196    0.0000 N   0  0
    9.2932   -6.2279    0.0000 C   0  0
    7.1404   -5.8413    0.0000 N   0  0
    8.5787   -8.2849    0.0000 N   0  0
   10.0108   -5.8135    0.0000 N   0  0
    9.2932   -8.7025    0.0000 C   0  0
    6.4321   -6.2713    0.0000 C   0  0
   10.7346   -6.2156    0.0000 C   0  0
   10.0263   -8.2849    0.0000 C   0  0
    9.2932   -9.5190    0.0000 C   0  0
    6.4321   -7.1157    0.0000 C   0  0
    5.7176   -5.8723    0.0000 C   0  0
   11.4491   -5.7980    0.0000 C   0  0
   11.4491   -5.0000    0.0000 C   0  0
   10.0108   -9.9459    0.0000 C   0  0
    5.7331   -7.5209    0.0000 C   0  0
    5.0000   -6.2867    0.0000 C   0  0
   10.7346   -8.7025    0.0000 C   0  0
   10.7346   -9.5221    0.0000 C   0  0
    5.0093   -7.1187    0.0000 C   0  0
  2  3  1  0
  3  1  2  0
  4  1  1  0
  5  6  1  0
  6  4  2  0
  7  2  1  0
  8  1  1  0
  9  6  1  0
 10  8  1  0
 11  7  1  0
 12  9  1  0
 13 10  1  0
 14 10  1  0
 15 11  1  0
 16 11  1  0
 17 12  1  0
 18 17  1  0
 19 14  1  0
 20 15  1  0
 21 16  1  0
 22 13  1  0
 23 22  1  0
 24 21  1  0
  5  2  2  0
 23 19  1  0
 24 20  1  0
M  END
> <COMPOUND_ID>
DNDI1417448

$$$$

  SciTegic04051205032D

 22 23  0  0  0  0            999 V2000
    5.7178   -5.7207    0.0000 C   0  0
   10.0358   -6.4794    0.0000 C   0  0
   12.1801   -6.8690    0.0000 N   0  0
   10.7418   -6.8924    0.0000 C   0  0
    9.3298   -6.9130    0.0000 N   0  0
    6.4237   -5.2871    0.0000 O   0  0
   10.0358   -5.6650    0.0000 O   0  0
   11.4624   -6.4677    0.0000 C   0  0
    6.1601   -6.4120    0.0000 F   0  0
    5.3076   -5.0000    0.0000 F   0  0
    5.0000   -6.1278    0.0000 Cl  0  0
    8.6120   -6.5029    0.0000 C   0  0
    7.1766   -5.6943    0.0000 C   0  0
    8.6004   -5.6650    0.0000 C   0  0
    7.8973   -6.9247    0.0000 C   0  0
    7.1766   -6.5145    0.0000 C   0  0
    7.8826   -5.2490    0.0000 C   0  0
   12.2124   -7.7010    0.0000 C   0  0
   12.8627   -6.4472    0.0000 C   0  0
   12.9331   -8.0672    0.0000 C   0  0
   13.5922   -6.8221    0.0000 C   0  0
   13.6273   -7.6190    0.0000 C   0  0
  2  5  1  0
  3  8  1  0
  4  2  1  0
  5 12  1  0
  6  1  1  0
  7  2  2  0
  8  4  1  0
  9  1  1  0
 10  1  1  0
 11  1  1  0
 12 15  1  0
 13  6  1  0
 14 17  1  0
 15 16  2  0
 16 13  1  0
 17 13  2  0
 18  3  1  0
 19  3  1  0
 20 18  1  0
 21 19  1  0
 22 21  1  0
 14 12  2  0
 22 20  1  0
M  END
> <COMPOUND_ID>
DNDI1417449

$$$$

  SciTegic04051205032D

 23 25  0  0  0  0            999 V2000
    8.6706   -7.8743    0.0000 C   0  0
    9.5121   -7.8873    0.0000 C   0  0
    8.3242   -7.1330    0.0000 N   0  0
    9.9588   -7.1590    0.0000 N   0  0
    9.5639   -6.4663    0.0000 C   0  0
    8.6834   -6.4663    0.0000 C   0  0
    8.4018   -8.6155    0.0000 N   0  0
    9.7419   -8.6802    0.0000 N   0  0
    9.0524   -9.1399    0.0000 O   0  0
    8.2724   -5.7638    0.0000 N   0  0
   10.0365   -5.7638    0.0000 N   0  0
    6.2624   -6.5213    0.0000 C   0  0
    7.0845   -6.4792    0.0000 C   0  0
    7.4794   -5.7768    0.0000 C   0  0
    5.8286   -5.8157    0.0000 C   0  0
   10.8910   -5.8286    0.0000 C   0  0
    6.2267   -5.1003    0.0000 C   0  0
    5.8707   -7.2367    0.0000 Cl  0  0
    7.0456   -5.0744    0.0000 C   0  0
    5.0000   -5.8286    0.0000 C   0  0
   11.7488   -5.8804    0.0000 C   0  0
   10.8554   -6.6605    0.0000 C   0  0
   10.9331   -5.0000    0.0000 C   0  0
  2  1  1  0
  3  1  1  0
  4  2  1  0
  5  4  2  0
  6  3  2  0
  7  1  2  0
  8  2  2  0
  9  7  1  0
 10  6  1  0
 11  5  1  0
 12 13  2  0
 13 14  1  0
 14 10  1  0
 15 17  2  0
 16 11  1  0
 17 19  1  0
 18 12  1  0
 19 14  2  0
 20 15  1  0
 21 16  1  0
 22 16  1  0
 23 16  1  0
  9  8  1  0
  5  6  1  0
 15 12  1  0
M  END
> <COMPOUND_ID>
DNDI1417450

$$$$

  SciTegic04051205032D

 22 24  0  0  0  0            999 V2000
    5.6945   -8.7136    0.0000 S   0  0
    6.4236   -8.2940    0.0000 N   0  0
    6.4236   -7.4688    0.0000 C   0  0
    7.1353   -7.0631    0.0000 C   0  0
    7.1353   -6.2379    0.0000 C   0  0
    6.1038   -9.4288    0.0000 C   0  0
    5.0000   -9.1193    0.0000 O   0  0
    5.2922   -7.9846    0.0000 O   0  0
    7.8299   -7.4688    0.0000 N   0  0
    6.4236   -5.8252    0.0000 C   0  0
    5.6945   -7.0631    0.0000 C   0  0
    5.6945   -6.2379    0.0000 C   0  0
    5.6945  -10.1405    0.0000 C   0  0
    6.9462   -9.4288    0.0000 C   0  0
    6.4236   -5.0000    0.0000 Cl  0  0
    6.1038  -10.8489    0.0000 C   0  0
    7.3588  -10.1405    0.0000 C   0  0
    6.9462  -10.8489    0.0000 C   0  0
    7.8299   -5.8252    0.0000 C   0  0
    8.5589   -7.0631    0.0000 C   0  0
    7.3450  -11.5504    0.0000 C   0  0
    8.5589   -6.2379    0.0000 C   0  0
  2  1  1  0
  3  2  1  0
  4  3  1  0
  5  4  2  0
  6  1  1  0
  7  1  2  0
  8  1  2  0
  9  4  1  0
 10 12  2  0
 11  3  2  0
 12 11  1  0
 13  6  2  0
 14  6  1  0
 15 10  1  0
 16 13  1  0
 17 14  2  0
 18 17  1  0
 19  5  1  0
 20  9  2  0
 21 18  1  0
 22 20  1  0
 16 18  2  0
  5 10  1  0
 22 19  2  0
M  END
> <COMPOUND_ID>
DNDI1417451

$$$$

  SciTegic04051205032D

 23 24  0  0  0  0            999 V2000
    6.4302   -7.0625    0.0000 C   0  0
    7.1438   -7.4881    0.0000 C   0  0
    5.7135   -7.4881    0.0000 C   0  0
    8.5740   -5.8262    0.0000 C   0  0
    5.7135   -8.3112    0.0000 C   0  0
    7.1438   -8.3112    0.0000 C   0  0
    6.4302   -8.7274    0.0000 C   0  0
    9.2876   -6.2363    0.0000 N   0  0
    7.8573   -7.0625    0.0000 O   0  0
    9.2876   -7.0625    0.0000 N   0  0
    8.5740   -5.0000    0.0000 O   0  0
    7.8573   -6.2363    0.0000 C   0  0
    6.4302   -6.2363    0.0000 C   0  0
    5.0000   -8.7274    0.0000 Cl  0  0
    9.9886   -7.4756    0.0000 C   0  0
    6.4302   -9.5505    0.0000 C   0  0
    5.7261   -5.8262    0.0000 C   0  0
    7.1438   -5.8262    0.0000 C   0  0
    9.9886   -8.2986    0.0000 C   0  0
   10.7053   -7.0625    0.0000 C   0  0
   10.7053   -8.7117    0.0000 C   0  0
   11.4188   -7.4756    0.0000 C   0  0
   11.4188   -8.2986    0.0000 C   0  0
  2  1  1  0
  3  1  2  0
  4 12  1  0
  5  3  1  0
  6  2  2  0
  7  5  2  0
  8  4  1  0
  9  2  1  0
 10  8  1  0
 11  4  2  0
 12  9  1  0
 13  1  1  0
 14  5  1  0
 15 10  1  0
 16  7  1  0
 17 13  1  0
 18 13  1  0
 19 15  2  0
 20 15  1  0
 21 19  1  0
 22 20  2  0
 23 22  1  0
  7  6  1  0
 23 21  2  0
M  END
> <COMPOUND_ID>
DNDI1417452

$$$$

  SciTegic04051205032D

 23 26  0  0  0  0            999 V2000
    6.5023   -6.6991    0.0000 C   0  0
   10.0847   -7.1176    0.0000 C   0  0
    7.2207   -7.1083    0.0000 C   0  0
    9.3694   -6.6991    0.0000 C   0  0
    8.6511   -7.1083    0.0000 N   0  0
    7.9358   -6.6866    0.0000 O   0  0
    7.2425   -6.3274    0.0000 C   0  0
    6.0026   -6.1213    0.0000 C   0  0
    5.6465   -6.5367    0.0000 C   0  0
    5.5716   -5.7246    0.0000 C   0  0
    7.1613   -5.5278    0.0000 C   0  0
    5.8995   -5.3685    0.0000 C   0  0
   10.8000   -6.6991    0.0000 C   0  0
    7.2207   -7.9422    0.0000 O   0  0
    6.6178   -5.0000    0.0000 C   0  0
    6.3274   -5.3280    0.0000 C   0  0
    5.0000   -5.1187    0.0000 C   0  0
    9.3694   -5.8777    0.0000 N   0  0
   10.8000   -5.8777    0.0000 Cl  0  0
   10.0722   -7.9422    0.0000 C   0  0
   11.5121   -7.1176    0.0000 C   0  0
   10.7906   -8.3451    0.0000 C   0  0
   11.5027   -7.9422    0.0000 C   0  0
  2  4  1  0
  3  1  1  0
  4  5  2  0
  5  6  1  0
  6  3  1  0
  7  1  1  0
  8  1  1  0
  9  1  1  0
 10  9  1  0
 11  7  1  0
 12  8  1  0
 13  2  2  0
 14  3  2  0
 15 11  1  0
 16 11  1  0
 17 10  1  0
 18  4  1  0
 19 13  1  0
 20  2  1  0
 21 13  1  0
 22 20  2  0
 23 22  1  0
 16 10  1  0
 15 12  1  0
 17 12  1  0
 23 21  2  0
M  END
> <COMPOUND_ID>
DNDI1417453

$$$$

  SciTegic04051205032D

 20 22  0  0  0  0            999 V2000
    9.5965   -6.6508    0.0000 C   0  0
    8.7626   -7.1253    0.0000 C   0  0
    7.9762   -6.6508    0.0000 C   0  0
    7.9762   -5.7288    0.0000 C   0  0
    9.5965   -5.7288    0.0000 C   0  0
    8.7626   -5.2475    0.0000 O   0  0
   10.1727   -6.9762    0.0000 O   0  0
    7.1559   -7.1253    0.0000 C   0  0
    7.1559   -5.2475    0.0000 C   0  0
   10.7399   -7.3084    0.0000 C   0  0
    8.7626   -8.0812    0.0000 O   0  0
   11.3049   -6.9762    0.0000 C   0  0
    6.3266   -5.7288    0.0000 C   0  0
    6.3266   -6.6508    0.0000 C   0  0
   11.3049   -6.3254    0.0000 Br  0  0
    5.4950   -5.2475    0.0000 O   0  0
   10.7399   -7.9637    0.0000 C   0  0
   11.8676   -7.3084    0.0000 C   0  0
   11.3049   -8.2891    0.0000 C   0  0
   11.8676   -7.9637    0.0000 C   0  0
  2  1  1  0
  3  2  1  0
  4  6  1  0
  5  1  2  0
  6  5  1  0
  7  1  1  0
  8  3  2  0
  9  4  2  0
 10  7  1  0
 11  2  2  0
 12 10  1  0
 13  9  1  0
 14  8  1  0
 15 12  1  0
 16 13  1  0
 17 10  2  0
 18 12  2  0
 19 17  1  0
 20 19  2  0
  4  3  1  0
 13 14  2  0
 20 18  1  0
M  END
> <COMPOUND_ID>
DNDI1417454

$$$$

  SciTegic04051205032D

 20 21  0  0  0  0            999 V2000
    8.5878   -6.4877    0.0000 N   0  0
    9.3011   -6.9025    0.0000 C   0  0
   10.0021   -6.4959    0.0000 C   0  0
    7.8743   -6.9149    0.0000 C   0  0
    8.5836   -5.6664    0.0000 N   0  0
    7.8910   -7.7361    0.0000 N   0  0
    6.4517   -7.7568    0.0000 N   0  0
    7.1693   -8.1633    0.0000 C   0  0
   10.0063   -5.6706    0.0000 C   0  0
    9.3053   -5.2558    0.0000 C   0  0
    7.1568   -6.5043    0.0000 C   0  0
    6.4351   -6.9273    0.0000 C   0  0
    9.2928   -7.7237    0.0000 O   0  0
   10.5827   -7.0725    0.0000 Cl  0  0
    7.1775   -8.9887    0.0000 S   0  0
   10.7196   -5.2475    0.0000 Cl  0  0
    5.7175   -6.5167    0.0000 O   0  0
    6.4641   -9.4035    0.0000 C   0  0
    5.7134   -5.6955    0.0000 C   0  0
    5.0000   -5.2889    0.0000 C   0  0
  2  1  1  0
  3  2  1  0
  4  1  1  0
  5  1  1  0
  6  4  1  0
  7  8  1  0
  8  6  2  0
  9 10  1  0
 10  5  2  0
 11  4  2  0
 12 11  1  0
 13  2  2  0
 14  3  1  0
 15  8  1  0
 16  9  1  0
 17 12  1  0
 18 15  1  0
 19 17  1  0
 20 19  1  0
  9  3  2  0
  7 12  2  0
M  END
> <COMPOUND_ID>
DNDI1417455

$$$$

  SciTegic04051205032D

 24 26  0  0  0  0            999 V2000
    9.7566   -8.7411    0.0000 N   0  0
    8.6794   -9.5272    0.0000 C   0  0
   10.0269   -9.5272    0.0000 C   0  0
    8.9289   -8.7411    0.0000 C   0  0
    9.3448  -10.0221    0.0000 C   0  0
    6.4959   -9.4897    0.0000 N   0  0
   10.2432   -8.0798    0.0000 C   0  0
   10.0768   -5.9171    0.0000 C   0  0
    5.1650   -9.4897    0.0000 N   0  0
    5.4145  -10.2716    0.0000 N   0  0
    6.2463  -10.2716    0.0000 C   0  0
    5.8263   -9.0031    0.0000 C   0  0
    7.2819   -9.2277    0.0000 N   0  0
    7.8933   -9.7892    0.0000 C   0  0
   10.4054   -6.6657    0.0000 C   0  0
    9.9188   -7.3312    0.0000 C   0  0
   10.5676   -5.2475    0.0000 F   0  0
    9.2575   -5.8297    0.0000 F   0  0
   10.8878   -5.7840    0.0000 F   0  0
   10.8047   -9.7767    0.0000 C   0  0
    8.4590   -8.0756    0.0000 C   0  0
   11.0667   -8.1754    0.0000 C   0  0
   11.2247   -6.7572    0.0000 C   0  0
   11.5533   -7.5059    0.0000 C   0  0
  2  4  2  0
  3  1  1  0
  4  1  1  0
  5  3  2  0
  6 13  1  0
  7  1  1  0
  8 15  1  0
  9 12  2  0
 10 11  2  0
 11  6  1  0
 12  6  1  0
 13 14  2  0
 14  2  1  0
 15 16  2  0
 16  7  1  0
 17  8  1  0
 18  8  1  0
 19  8  1  0
 20  3  1  0
 21  4  1  0
 22  7  2  0
 23 24  2  0
 24 22  1  0
  2  5  1  0
 15 23  1  0
  9 10  1  0
M  END
> <COMPOUND_ID>
DNDI1417456

$$$$

  SciTegic04051205032D

 25 28  0  0  0  0            999 V2000
   10.0828   -7.5527    0.0000 C   0  0
   10.1208   -6.7374    0.0000 N   0  0
    8.6577   -7.4690    0.0000 C   0  0
    8.6577   -6.6688    0.0000 N   0  0
   10.8143   -6.3717    0.0000 C   0  0
   10.7458   -8.0176    0.0000 N   0  0
    7.2709   -6.6688    0.0000 C   0  0
    7.9567   -6.2725    0.0000 C   0  0
    9.3513   -7.9491    0.0000 N   0  0
   11.5459   -6.8212    0.0000 C   0  0
    7.9567   -7.9185    0.0000 N   0  0
   11.4773   -7.6213    0.0000 C   0  0
    7.2709   -7.4690    0.0000 C   0  0
    6.5774   -6.2725    0.0000 C   0  0
   10.7609   -5.5715    0.0000 O   0  0
    6.5774   -7.9185    0.0000 C   0  0
    7.9567   -5.4267    0.0000 O   0  0
    5.8764   -6.6688    0.0000 C   0  0
    5.8764   -7.4690    0.0000 C   0  0
   12.2469   -6.4554    0.0000 C   0  0
   12.1631   -8.1014    0.0000 C   0  0
    5.0000   -6.3640    0.0000 C   0  0
    8.7720   -5.0000    0.0000 C   0  0
   12.9404   -6.8898    0.0000 C   0  0
   12.8947   -7.7356    0.0000 C   0  0
  2  1  1  0
  3  9  1  0
  4  3  1  0
  5  2  1  0
  6  1  2  0
  7 13  2  0
  8  4  2  0
  9  1  1  0
 10 12  2  0
 11  3  2  0
 12  6  1  0
 13 11  1  0
 14  7  1  0
 15  5  2  0
 16 13  1  0
 17  8  1  0
 18 19  1  0
 19 16  2  0
 20 10  1  0
 21 12  1  0
 22 18  1  0
 23 17  1  0
 24 25  1  0
 25 21  2  0
 10  5  1  0
  7  8  1  0
 24 20  2  0
 14 18  2  0
M  END
> <COMPOUND_ID>
DNDI1417457

$$$$

  SciTegic04051205032D

 25 27  0  0  0  0            999 V2000
    9.8884   -6.0587    0.0000 C   0  0
   10.7478   -7.1795    0.0000 N   0  0
   11.5076   -7.5164    0.0000 C   0  0
   10.6516   -6.3648    0.0000 C   0  0
    8.3999   -6.5504    0.0000 N   0  0
   12.1745   -7.0179    0.0000 C   0  0
    9.2181   -6.5504    0.0000 N   0  0
    9.7818   -5.2475    0.0000 O   0  0
    7.9702   -5.8285    0.0000 C   0  0
   12.9514   -7.3307    0.0000 C   0  0
    6.7326   -6.5366    0.0000 C   0  0
    7.1485   -5.8285    0.0000 C   0  0
    5.9006   -6.5538    0.0000 C   0  0
    5.4950   -7.2585    0.0000 O   0  0
   11.6176   -8.3243    0.0000 C   0  0
   12.3533   -8.6577    0.0000 C   0  0
    5.8834   -5.1202    0.0000 C   0  0
   12.0782   -6.2101    0.0000 C   0  0
   11.2875   -5.8834    0.0000 C   0  0
   13.0270   -8.1455    0.0000 C   0  0
    6.7153   -5.1134    0.0000 C   0  0
    5.4950   -5.8456    0.0000 C   0  0
   13.6115   -6.8254    0.0000 C   0  0
   12.7417   -5.6978    0.0000 C   0  0
   13.5187   -6.0072    0.0000 C   0  0
  2  4  1  0
  3  2  1  0
  4  1  1  0
  5  7  1  0
  6  3  1  0
  7  1  1  0
  8  1  2  0
  9  5  2  0
 10  6  2  0
 11 12  1  0
 12  9  1  0
 13 11  2  0
 14 13  1  0
 15  3  2  0
 16 15  1  0
 17 21  1  0
 18  6  1  0
 19  4  1  0
 20 16  2  0
 21 12  2  0
 22 17  2  0
 23 10  1  0
 24 18  2  0
 25 24  1  0
 20 10  1  0
 13 22  1  0
 23 25  2  0
M  END
> <COMPOUND_ID>
DNDI1417458

$$$$

  SciTegic04051205032D

 23 24  0  0  0  0            999 V2000
    8.5438   -7.5779    0.0000 N   0  0
    9.8189   -7.9903    0.0000 C   0  0
    9.0284   -8.2481    0.0000 C   0  0
    9.0284   -6.9145    0.0000 C   0  0
    9.8189   -7.1654    0.0000 S   0  0
   10.4823   -8.4750    0.0000 C   0  0
    6.0621   -7.0108    0.0000 C   0  0
    8.7775   -6.1240    0.0000 N   0  0
    6.6155   -6.3989    0.0000 C   0  0
   11.2351   -8.1415    0.0000 C   0  0
    7.4232   -6.5674    0.0000 C   0  0
   10.3998   -9.2999    0.0000 O   0  0
    8.7775   -9.0318    0.0000 N   0  0
    7.9697   -5.9590    0.0000 C   0  0
    6.3199   -7.7944    0.0000 O   0  0
    5.2578   -6.8355    0.0000 O   0  0
    6.3611   -5.6152    0.0000 C   0  0
    6.9146   -5.0000    0.0000 C   0  0
   11.3244   -7.3201    0.0000 C   0  0
    7.7189   -5.1718    0.0000 C   0  0
    5.0000   -6.0518    0.0000 C   0  0
   12.0771   -6.9867    0.0000 C   0  0
   10.6576   -6.8355    0.0000 C   0  0
  2  3  2  0
  3  1  1  0
  4  1  2  0
  5  4  1  0
  6  2  1  0
  7  9  1  0
  8  4  1  0
  9 11  1  0
 10  6  1  0
 11 14  2  0
 12  6  2  0
 13  3  1  0
 14  8  1  0
 15  7  2  0
 16  7  1  0
 17 18  1  0
 18 20  2  0
 19 10  1  0
 20 14  1  0
 21 16  1  0
 22 19  1  0
 23 19  1  0
  2  5  1  0
  9 17  2  0
M  END
> <COMPOUND_ID>
DNDI1417459

$$$$

  SciTegic04051205032D

 25 28  0  0  0  0            999 V2000
    7.1193   -5.0000    0.0000 N   0  0
    7.7975   -6.1823    0.0000 C   0  0
    8.4891   -5.7763    0.0000 C   0  0
    8.4891   -5.0000    0.0000 N   0  0
    7.1193   -5.7763    0.0000 C   0  0
    9.1806   -6.1823    0.0000 C   0  0
    5.0000   -6.9275    0.0000 N   0  0
    6.4189   -6.1823    0.0000 C   0  0
    9.1806   -6.9275    0.0000 C   0  0
    9.8767   -5.7763    0.0000 C   0  0
   11.2821   -7.3424    0.0000 O   0  0
   10.5683   -6.9275    0.0000 C   0  0
   11.9961   -6.9275    0.0000 C   0  0
   10.5683   -6.1823    0.0000 C   0  0
    9.8767   -7.3290    0.0000 C   0  0
   12.7545   -7.2889    0.0000 C   0  0
    5.7094   -7.3290    0.0000 C   0  0
    5.0000   -6.1823    0.0000 C   0  0
    5.7094   -5.7763    0.0000 C   0  0
    6.4189   -6.9275    0.0000 C   0  0
   13.4863   -6.8783    0.0000 C   0  0
   12.7545   -8.1456    0.0000 C   0  0
   14.1958   -7.3334    0.0000 C   0  0
   13.4863   -8.5605    0.0000 C   0  0
   14.1958   -8.1678    0.0000 C   0  0
  2  5  1  0
  3  4  1  0
  4  1  1  0
  5  1  2  0
  6  3  1  0
  7 17  1  0
  8  5  1  0
  9  6  2  0
 10  6  1  0
 11 12  1  0
 12 14  1  0
 13 11  1  0
 14 10  2  0
 15  9  1  0
 16 13  1  0
 17 20  1  0
 18 19  1  0
 19  8  1  0
 20  8  1  0
 21 16  2  0
 22 16  1  0
 23 21  1  0
 24 22  2  0
 25 24  1  0
  2  3  2  0
  7 18  1  0
 12 15  2  0
 25 23  2  0
M  END
> <COMPOUND_ID>
DNDI1417460

$$$$

  SciTegic04051205032D

 25 28  0  0  0  0            999 V2000
    7.8582   -7.4799    0.0000 N   0  0
    7.8582   -6.6476    0.0000 C   0  0
    7.1428   -7.8961    0.0000 C   0  0
    7.1394   -6.2417    0.0000 N   0  0
    6.4309   -7.4834    0.0000 C   0  0
    8.5701   -6.2314    0.0000 N   0  0
    7.1428   -8.7216    0.0000 N   0  0
    6.4309   -6.6579    0.0000 C   0  0
    6.4309   -9.1377    0.0000 C   0  0
    9.9975   -5.4094    0.0000 N   0  0
    6.4309   -9.9632    0.0000 C   0  0
    8.5667   -5.4094    0.0000 C   0  0
    9.2821   -6.6476    0.0000 C   0  0
    5.7154   -7.8961    0.0000 C   0  0
    5.7154   -6.2452    0.0000 C   0  0
    9.2787   -5.0000    0.0000 C   0  0
    9.9941   -6.2314    0.0000 C   0  0
    5.7189   -8.7216    0.0000 C   0  0
    7.1428  -10.3622    0.0000 C   0  0
    5.7189  -10.3725    0.0000 C   0  0
    5.0000   -7.4834    0.0000 C   0  0
    5.0000   -6.6579    0.0000 C   0  0
    5.7189  -11.1980    0.0000 C   0  0
    7.1531  -11.1876    0.0000 C   0  0
    6.4412  -11.6107    0.0000 C   0  0
  2  1  1  0
  3  1  2  0
  4  2  2  0
  5  3  1  0
  6  2  1  0
  7  3  1  0
  8  5  1  0
  9  7  1  0
 10 17  1  0
 11  9  1  0
 12  6  1  0
 13  6  1  0
 14  5  2  0
 15  8  2  0
 16 12  1  0
 17 13  1  0
 18  9  1  0
 19 11  1  0
 20 11  2  0
 21 14  1  0
 22 21  2  0
 23 20  1  0
 24 19  2  0
 25 23  2  0
  4  8  1  0
 10 16  1  0
 22 15  1  0
 24 25  1  0
M  END
> <COMPOUND_ID>
DNDI1417461

$$$$

  SciTegic04051205032D

 24 27  0  0  0  0            999 V2000
    7.0583   -8.6140    0.0000 C   0  0
    7.3990   -5.6558    0.0000 S   0  0
    6.7404   -9.3550    0.0000 N   0  0
    7.9867   -6.2462    0.0000 C   0  0
    6.5984   -5.8687    0.0000 C   0  0
    7.8675   -8.6509    0.0000 N   0  0
    6.3798   -6.6693    0.0000 C   0  0
    6.6296   -7.9213    0.0000 N   0  0
    8.7873   -6.0277    0.0000 C   0  0
    6.9703   -7.2712    0.0000 C   0  0
    9.3835   -6.6210    0.0000 C   0  0
    7.3678   -9.8973    0.0000 C   0  0
    7.7738   -7.0441    0.0000 C   0  0
    8.0719   -9.4657    0.0000 C   0  0
    8.3643   -7.6345    0.0000 C   0  0
    6.0107   -5.2810    0.0000 C   0  0
    5.5820   -6.8794    0.0000 C   0  0
    8.9974   -5.2185    0.0000 C   0  0
    9.1649   -7.4216    0.0000 C   0  0
   10.1728   -6.3968    0.0000 C   0  0
    5.0000   -6.2917    0.0000 C   0  0
    5.2129   -5.4911    0.0000 C   0  0
    9.7980   -5.0000    0.0000 C   0  0
   10.3857   -5.5904    0.0000 C   0  0
  2  5  1  0
  3  1  2  0
  4  2  1  0
  5  7  2  0
  6  1  1  0
  7 10  1  0
  8  1  1  0
  9  4  1  0
 10  8  1  0
 11  9  2  0
 12  3  1  0
 13  4  2  0
 14  6  1  0
 15 13  1  0
 16  5  1  0
 17  7  1  0
 18  9  1  0
 19 15  2  0
 20 11  1  0
 21 17  2  0
 22 21  1  0
 23 18  2  0
 24 23  1  0
 12 14  1  0
 22 16  2  0
 19 11  1  0
 24 20  2  0
M  END
> <COMPOUND_ID>
DNDI1417462

$$$$

  SciTegic04051205032D

 25 28  0  0  0  0            999 V2000
    7.8428  -10.3159    0.0000 C   0  0
    7.8428  -11.1416    0.0000 C   0  0
    7.1321   -9.8969    0.0000 C   0  0
    7.1321  -11.5565    0.0000 C   0  0
    8.5494  -11.5565    0.0000 N   0  0
    6.4255  -10.3159    0.0000 C   0  0
    8.5494   -9.8969    0.0000 C   0  0
    6.4255  -11.1745    0.0000 C   0  0
    8.5494   -9.0712    0.0000 N   0  0
    9.2642  -11.1745    0.0000 C   0  0
    9.2642  -10.3159    0.0000 C   0  0
    9.9625   -6.6268    0.0000 N   0  0
    9.2642   -7.8511    0.0000 C   0  0
   10.6692   -6.2324    0.0000 C   0  0
    9.2642   -8.6603    0.0000 C   0  0
    9.9625   -7.4444    0.0000 C   0  0
    5.7148   -9.8969    0.0000 C   0  0
    5.7148  -11.5853    0.0000 C   0  0
   11.4086   -6.6268    0.0000 C   0  0
   10.6692   -5.4232    0.0000 C   0  0
    5.0000  -10.2871    0.0000 C   0  0
    5.0000  -11.1745    0.0000 C   0  0
   11.3921   -5.0000    0.0000 C   0  0
   12.1111   -6.2324    0.0000 C   0  0
   12.0988   -5.3944    0.0000 C   0  0
  2  1  2  0
  3  1  1  0
  4  2  1  0
  5  2  1  0
  6  3  2  0
  7  1  1  0
  8  6  1  0
  9  7  1  0
 10 11  1  0
 11  7  2  0
 12 16  1  0
 13 15  1  0
 14 12  1  0
 15  9  1  0
 16 13  1  0
 17  6  1  0
 18  8  1  0
 19 14  1  0
 20 14  1  0
 21 17  2  0
 22 21  1  0
 23 20  1  0
 24 19  1  0
 25 23  1  0
 10  5  2  0
  8  4  2  0
 22 18  2  0
 25 24  1  0
M  END
> <COMPOUND_ID>
DNDI1417463

$$$$

  SciTegic04051205032D

 20 21  0  0  0  0            999 V2000
    7.0535   -8.7606    0.0000 C   0  0
    6.2688   -9.8416    0.0000 C   0  0
    6.2688   -9.0110    0.0000 C   0  0
    7.5377   -9.4284    0.0000 C   0  0
    7.0535  -10.0962    0.0000 S   0  0
    7.3123   -7.9676    0.0000 C   0  0
    5.4883  -10.0920    0.0000 N   0  0
    5.0000   -9.4284    0.0000 N   0  0
    6.7530   -7.3623    0.0000 N   0  0
    5.4883   -8.7564    0.0000 S   0  0
    7.0034   -6.5735    0.0000 C   0  0
    7.8131   -6.3982    0.0000 C   0  0
    8.1094   -7.7923    0.0000 O   0  0
    8.3307   -9.6412    0.0000 Cl  0  0
    8.3683   -7.0076    0.0000 O   0  0
    6.4483   -5.9683    0.0000 C   0  0
    8.0593   -5.6093    0.0000 O   0  0
    6.6987   -5.1795    0.0000 C   0  0
    5.6427   -6.1477    0.0000 C   0  0
    7.5043   -5.0000    0.0000 C   0  0
  2  3  2  0
  3  1  1  0
  4  1  2  0
  5  4  1  0
  6  1  1  0
  7  2  1  0
  8 10  1  0
  9  6  1  0
 10  3  1  0
 11  9  1  0
 12 11  1  0
 13  6  2  0
 14  4  1  0
 15 12  2  0
 16 11  1  0
 17 12  1  0
 18 16  1  0
 19 16  1  0
 20 17  1  0
  5  2  1  0
  8  7  2  0
M  END
> <COMPOUND_ID>
DNDI1417464

$$$$

  SciTegic04051205032D

 23 24  0  0  0  0            999 V2000
    5.7212   -6.2213    0.0000 C   0  0
    5.7212   -7.0467    0.0000 C   0  0
    6.4340   -5.8087    0.0000 C   0  0
   10.7399   -7.4886    0.0000 N   0  0
    7.1468   -6.2213    0.0000 C   0  0
    6.4215   -7.4678    0.0000 C   0  0
    7.1468   -7.0634    0.0000 C   0  0
   11.4527   -7.0801    0.0000 C   0  0
    7.8637   -7.4803    0.0000 O   0  0
   12.1655   -7.4886    0.0000 C   0  0
    5.0000   -5.8087    0.0000 Cl  0  0
   10.0271   -7.0717    0.0000 C   0  0
    9.3018   -7.4803    0.0000 C   0  0
    8.5890   -7.0634    0.0000 C   0  0
    9.3018   -8.3097    0.0000 O   0  0
    5.0000   -7.4511    0.0000 C   0  0
    6.4423   -5.0000    0.0000 C   0  0
   12.1655   -8.3097    0.0000 C   0  0
   12.8825   -7.0801    0.0000 C   0  0
   11.4611   -6.2631    0.0000 C   0  0
   12.8742   -8.7224    0.0000 C   0  0
   13.5870   -7.4886    0.0000 C   0  0
   13.5870   -8.3222    0.0000 C   0  0
  2  1  1  0
  3  1  2  0
  4 12  1  0
  5  3  1  0
  6  2  2  0
  7  6  1  0
  8  4  1  0
  9  7  1  0
 10  8  1  0
 11  1  1  0
 12 13  1  0
 13 14  1  0
 14  9  1  0
 15 13  1  0
 16  2  1  0
 17  3  1  0
 18 10  2  0
 19 10  1  0
 20  8  1  0
 21 18  1  0
 22 19  2  0
 23 22  1  0
  5  7  2  0
 23 21  2  0
M  END
> <COMPOUND_ID>
DNDI1417465

$$$$

  SciTegic04051205032D

 20 21  0  0  0  0            999 V2000
   10.2003   -6.6763    0.0000 C   0  0
   10.9410   -6.2800    0.0000 C   0  0
    7.3177   -6.6666    0.0000 C   0  0
   11.6459   -6.6568    0.0000 C   0  0
    8.7547   -6.6958    0.0000 N   0  0
   10.2003   -7.4982    0.0000 C   0  0
   11.6459   -7.5079    0.0000 C   0  0
    8.0509   -6.2605    0.0000 N   0  0
   10.9118   -7.8880    0.0000 C   0  0
    9.4986   -6.2918    0.0000 C   0  0
    7.3177   -7.5177    0.0000 O   0  0
    5.1650   -5.4147    0.0000 N   0  0
    6.5933   -6.2605    0.0000 C   0  0
   10.9508   -5.5198    0.0000 O   0  0
   10.9118   -8.7359    0.0000 Br  0  0
   12.3769   -6.2605    0.0000 C   0  0
    5.8699   -5.0000    0.0000 C   0  0
    5.1650   -6.2312    0.0000 C   0  0
    6.5933   -5.4147    0.0000 C   0  0
    5.8699   -6.6352    0.0000 C   0  0
  2  1  1  0
  3  8  1  0
  4  2  2  0
  5 10  2  0
  6  1  2  0
  7  9  2  0
  8  5  1  0
  9  6  1  0
 10  1  1  0
 11  3  2  0
 12 18  1  0
 13  3  1  0
 14  2  1  0
 15  9  1  0
 16  4  1  0
 17 19  1  0
 18 20  2  0
 19 13  2  0
 20 13  1  0
  7  4  1  0
 17 12  2  0
M  END
> <COMPOUND_ID>
DNDI1417466

$$$$

  SciTegic04051205032D

 25 28  0  0  0  0            999 V2000
    6.4269   -7.4702    0.0000 N   0  0
    7.1404   -8.6976    0.0000 C   0  0
    7.1404   -7.8806    0.0000 C   0  0
    6.4269   -9.1081    0.0000 C   0  0
    5.7096   -7.8806    0.0000 N   0  0
    7.8499   -7.4702    0.0000 C   0  0
    6.4269   -9.9328    0.0000 C   0  0
    7.8499   -9.1081    0.0000 C   0  0
    5.7096   -8.6976    0.0000 C   0  0
    7.8499   -6.6493    0.0000 C   0  0
    8.5557   -6.2351    0.0000 C   0  0
    7.1404  -10.3432    0.0000 C   0  0
    9.2692   -6.6493    0.0000 C   0  0
    8.5557   -7.8806    0.0000 C   0  0
    7.8499   -9.9328    0.0000 C   0  0
    9.2692   -7.4702    0.0000 C   0  0
    8.5557   -5.4143    0.0000 O   0  0
    7.1404  -11.2024    0.0000 O   0  0
   10.0095   -6.2351    0.0000 O   0  0
    5.7096  -10.3432    0.0000 C   0  0
    5.0000   -9.9328    0.0000 C   0  0
    5.0000   -9.1081    0.0000 C   0  0
    7.8499   -5.0000    0.0000 C   0  0
    6.4269  -11.6167    0.0000 C   0  0
   10.7498   -6.6493    0.0000 C   0  0
  2  3  1  0
  3  1  2  0
  4  9  1  0
  5  1  1  0
  6  3  1  0
  7  4  2  0
  8  2  2  0
  9  5  1  0
 10  6  2  0
 11 10  1  0
 12  7  1  0
 13 16  1  0
 14  6  1  0
 15  8  1  0
 16 14  2  0
 17 11  1  0
 18 12  1  0
 19 13  1  0
 20 21  2  0
 21 22  1  0
 22  9  2  0
 23 17  1  0
 24 18  1  0
 25 19  1  0
  2  4  1  0
 15 12  2  0
 20  7  1  0
 13 11  2  0
M  END
> <COMPOUND_ID>
DNDI1417467

$$$$

  SciTegic04051205032D

 24 27  0  0  0  0            999 V2000
    7.8480   -6.2562    0.0000 C   0  0
    7.1401   -6.6695    0.0000 C   0  0
    9.3007   -7.9011    0.0000 C   0  0
    8.5723   -6.6695    0.0000 C   0  0
    9.4725   -8.6868    0.0000 N   0  0
    6.4281   -6.2562    0.0000 C   0  0
    8.5887   -7.4920    0.0000 N   0  0
   10.0249   -7.4920    0.0000 S   0  0
    7.8480   -5.4091    0.0000 C   0  0
    5.7243   -6.6695    0.0000 N   0  0
    9.3007   -6.2316    0.0000 C   0  0
   10.2827   -8.7850    0.0000 C   0  0
    9.3007   -5.4091    0.0000 N   0  0
   10.6142   -8.0444    0.0000 C   0  0
    6.4281   -5.4091    0.0000 C   0  0
    7.1401   -5.0000    0.0000 C   0  0
    7.1401   -7.4920    0.0000 O   0  0
    5.0000   -6.2562    0.0000 C   0  0
   10.0085   -5.0000    0.0000 C   0  0
   10.0249   -6.6490    0.0000 C   0  0
    5.7243   -5.0000    0.0000 C   0  0
    5.0000   -5.4091    0.0000 C   0  0
   10.7124   -5.4091    0.0000 C   0  0
   10.7328   -6.2316    0.0000 C   0  0
  2  1  2  0
  3  7  1  0
  4  1  1  0
  5  3  2  0
  6  2  1  0
  7  4  1  0
  8  3  1  0
  9  1  1  0
 10  6  1  0
 11  4  1  0
 12  5  1  0
 13 11  1  0
 14  8  1  0
 15 16  1  0
 16  9  2  0
 17  2  1  0
 18 10  2  0
 19 13  2  0
 20 11  2  0
 21 15  1  0
 22 21  2  0
 23 19  1  0
 24 20  1  0
 15  6  2  0
 23 24  2  0
 22 18  1  0
 14 12  2  0
M  END
> <COMPOUND_ID>
DNDI1417468

$$$$

  SciTegic04051205032D

 24 27  0  0  0  0            999 V2000
    6.2723   -8.8651    0.0000 C   0  0
    5.0000   -8.4490    0.0000 N   0  0
    5.4849   -9.1230    0.0000 C   0  0
    6.8500  -10.1752    0.0000 C   0  0
    5.4849   -7.7853    0.0000 C   0  0
    6.9429   -9.3500    0.0000 C   0  0
    6.2723   -8.0364    0.0000 S   0  0
    6.1382  -10.5879    0.0000 C   0  0
    6.3101  -11.3925    0.0000 N   0  0
    7.4690  -10.7288    0.0000 C   0  0
    5.2304   -7.0013    0.0000 N   0  0
    7.1319  -11.4819    0.0000 C   0  0
    7.6959   -9.0198    0.0000 O   0  0
    5.2304   -9.9070    0.0000 N   0  0
    5.7840   -6.3858    0.0000 C   0  0
    8.2873  -10.6395    0.0000 C   0  0
    7.6168  -12.1456    0.0000 C   0  0
    6.5921   -6.5577    0.0000 C   0  0
    5.5296   -5.6018    0.0000 C   0  0
    8.7722  -11.3100    0.0000 C   0  0
    8.4387  -12.0631    0.0000 C   0  0
    7.1423   -5.9422    0.0000 C   0  0
    6.0763   -5.0000    0.0000 C   0  0
    6.8878   -5.1685    0.0000 C   0  0
  2  3  1  0
  3  1  2  0
  4  6  1  0
  5  7  1  0
  6  1  1  0
  7  1  1  0
  8  4  2  0
  9  8  1  0
 10  4  1  0
 11  5  1  0
 12 10  2  0
 13  6  2  0
 14  3  1  0
 15 11  1  0
 16 10  1  0
 17 12  1  0
 18 15  1  0
 19 15  2  0
 20 16  2  0
 21 20  1  0
 22 18  2  0
 23 19  1  0
 24 23  2  0
  5  2  2  0
  9 12  1  0
 17 21  2  0
 24 22  1  0
M  END
> <COMPOUND_ID>
DNDI1417469

$$$$

  SciTegic04051205032D

 24 27  0  0  0  0            999 V2000
    6.4262   -5.4194    0.0000 C   0  0
    7.2063   -5.1547    0.0000 N   0  0
    7.6943   -5.8180    0.0000 C   0  0
    6.4296   -6.2338    0.0000 N   0  0
    7.2132   -6.4813    0.0000 C   0  0
    9.7666   -7.9556    0.0000 C   0  0
    5.7114   -5.0000    0.0000 N   0  0
   10.1824   -8.6601    0.0000 C   0  0
    8.5191   -5.8145    0.0000 C   0  0
   10.1721   -7.2339    0.0000 N   0  0
   11.0004   -8.7495    0.0000 S   0  0
    5.7114   -6.6531    0.0000 C   0  0
    5.0000   -6.2442    0.0000 C   0  0
    8.9315   -6.5294    0.0000 C   0  0
    9.7597   -6.5191    0.0000 C   0  0
    9.8560   -9.4196    0.0000 C   0  0
    8.9418   -7.9590    0.0000 O   0  0
   11.1757   -9.5502    0.0000 C   0  0
    5.0000   -5.4194    0.0000 C   0  0
   10.4677   -9.9729    0.0000 C   0  0
    7.4675   -7.2717    0.0000 C   0  0
    8.9212   -5.0928    0.0000 C   0  0
    9.7460   -5.0791    0.0000 C   0  0
   10.1721   -5.8077    0.0000 C   0  0
  2  1  2  0
  3  2  1  0
  4  1  1  0
  5  4  1  0
  6 10  1  0
  7  1  1  0
  8  6  1  0
  9  3  1  0
 10 15  1  0
 11  8  1  0
 12  4  1  0
 13 19  1  0
 14  9  2  0
 15 14  1  0
 16  8  2  0
 17  6  2  0
 18 11  1  0
 19  7  2  0
 20 16  1  0
 21  5  1  0
 22  9  1  0
 23 22  2  0
 24 23  1  0
  5  3  2  0
 12 13  2  0
 15 24  2  0
 18 20  2  0
M  END
> <COMPOUND_ID>
DNDI1417470

$$$$

  SciTegic04051205032D

 24 25  0  0  0  0            999 V2000
    7.8591   -6.6629    0.0000 C   0  0
    7.1422   -6.2503    0.0000 C   0  0
    8.5718   -6.2503    0.0000 C   0  0
    6.4254   -6.6629    0.0000 C   0  0
    7.1422   -5.4251    0.0000 C   0  0
    9.2803   -6.6629    0.0000 C   0  0
    8.5634   -5.4251    0.0000 C   0  0
    5.7169   -5.4251    0.0000 C   0  0
    9.9971   -5.4251    0.0000 C   0  0
    9.9971   -6.2503    0.0000 C   0  0
    9.2803   -5.0125    0.0000 C   0  0
    5.7169   -6.2503    0.0000 C   0  0
    6.4254   -5.0125    0.0000 C   0  0
    7.8549   -9.1385    0.0000 N   0  0
    5.0000   -5.0125    0.0000 F   0  0
   10.7056   -5.0000    0.0000 F   0  0
    7.8591   -7.4881    0.0000 O   0  0
   11.4183   -8.7134    0.0000 N   0  0
    7.1422   -8.7259    0.0000 C   0  0
    8.5634   -8.7134    0.0000 C   0  0
   10.7014   -9.1260    0.0000 C   0  0
    7.1422   -7.9007    0.0000 C   0  0
    9.2803   -9.1260    0.0000 C   0  0
    9.9929   -8.7134    0.0000 C   0  0
  2  1  1  0
  3  1  1  0
  4  2  2  0
  5  2  1  0
  6  3  2  0
  7  3  1  0
  8 13  1  0
  9 11  1  0
 10  6  1  0
 11  7  2  0
 12  4  1  0
 13  5  2  0
 14 19  1  0
 15  8  1  0
 16  9  1  0
 17  1  1  0
 18 21  1  0
 19 22  1  0
 20 14  1  0
 21 24  1  0
 22 17  1  0
 23 20  1  0
 24 23  1  0
  9 10  2  0
  8 12  2  0
M  END
> <COMPOUND_ID>
DNDI1417471

$$$$

  SciTegic04051205032D

 25 28  0  0  0  0            999 V2000
    8.4135   -6.4962    0.0000 N   0  0
    7.9634   -5.8335    0.0000 C   0  0
    7.9509   -7.1006    0.0000 C   0  0
    7.1464   -6.0545    0.0000 C   0  0
    7.1589   -6.8797    0.0000 C   0  0
    9.2470   -6.4962    0.0000 C   0  0
    6.4379   -7.3049    0.0000 C   0  0
    7.9509   -5.0000    0.0000 O   0  0
    7.9634   -7.9341    0.0000 O   0  0
    6.4379   -5.6419    0.0000 C   0  0
   13.4775   -8.2592    0.0000 N   0  0
    9.6513   -7.2048    0.0000 C   0  0
    9.6513   -5.7835    0.0000 C   0  0
   10.8892   -6.5046    0.0000 C   0  0
    5.7252   -6.8880    0.0000 C   0  0
   11.7227   -6.5046    0.0000 C   0  0
   10.4766   -5.7835    0.0000 C   0  0
   10.4766   -7.2048    0.0000 C   0  0
    5.7168   -6.0670    0.0000 C   0  0
   12.3104   -7.0839    0.0000 C   0  0
   13.6900   -7.4549    0.0000 C   0  0
   12.6647   -8.4677    0.0000 C   0  0
   13.1148   -6.8630    0.0000 C   0  0
   12.0896   -7.8883    0.0000 C   0  0
    5.0000   -5.6419    0.0000 C   0  0
  2  1  1  0
  3  1  1  0
  4  2  1  0
  5  3  1  0
  6  1  1  0
  7  5  1  0
  8  2  2  0
  9  3  2  0
 10  4  1  0
 11 21  1  0
 12  6  2  0
 13  6  1  0
 14 18  2  0
 15  7  1  0
 16 14  1  0
 17 13  2  0
 18 12  1  0
 19 10  1  0
 20 16  1  0
 21 23  2  0
 22 24  1  0
 23 20  1  0
 24 20  2  0
 25 19  1  0
  4  5  1  0
 14 17  1  0
 19 15  1  0
 11 22  2  0
M  END
> <COMPOUND_ID>
DNDI1417472

$$$$

  SciTegic04051205032D

 23 24  0  0  0  0            999 V2000
   11.4596   -6.8568    0.0000 C   0  0
   10.7505   -6.4567    0.0000 C   0  0
   10.0413   -6.8568    0.0000 N   0  0
    8.5458   -6.9067    0.0000 C   0  0
    7.8366   -6.4885    0.0000 C   0  0
    9.3322   -6.4567    0.0000 O   0  0
    7.1275   -6.9067    0.0000 C   0  0
    6.4183   -6.4749    0.0000 C   0  0
   12.1688   -6.4567    0.0000 C   0  0
    6.4183   -5.6567    0.0000 C   0  0
    8.5321   -7.7978    0.0000 O   0  0
    7.8366   -5.6703    0.0000 C   0  0
    7.1411   -5.2702    0.0000 C   0  0
   10.7505   -5.6384    0.0000 N   0  0
   12.1688   -5.6384    0.0000 Cl  0  0
    5.7092   -6.8931    0.0000 O   0  0
   11.4596   -7.6750    0.0000 C   0  0
    5.7092   -5.2475    0.0000 O   0  0
   12.8780   -6.8568    0.0000 C   0  0
    5.6955   -7.7113    0.0000 C   0  0
    5.0000   -5.6521    0.0000 C   0  0
   12.1688   -8.0932    0.0000 C   0  0
   12.8780   -7.6750    0.0000 C   0  0
  2  1  1  0
  3  2  2  0
  4  6  1  0
  5  4  1  0
  6  3  1  0
  7  5  1  0
  8  7  2  0
  9  1  2  0
 10 13  2  0
 11  4  2  0
 12  5  2  0
 13 12  1  0
 14  2  1  0
 15  9  1  0
 16  8  1  0
 17  1  1  0
 18 10  1  0
 19  9  1  0
 20 16  1  0
 21 18  1  0
 22 17  2  0
 23 22  1  0
 19 23  2  0
  8 10  1  0
M  END
> <COMPOUND_ID>
DNDI1417473

$$$$

  SciTegic04051205032D

 23 25  0  0  0  0            999 V2000
    8.5675   -7.4877    0.0000 C   0  0
    8.5675   -6.6547    0.0000 C   0  0
    7.8526   -7.9041    0.0000 C   0  0
    7.8526   -6.2383    0.0000 C   0  0
    7.1339   -7.4877    0.0000 C   0  0
    7.1339   -6.6547    0.0000 C   0  0
    6.4152   -7.9041    0.0000 C   0  0
    9.2751   -6.2494    0.0000 N   0  0
    6.4152   -8.7149    0.0000 N   0  0
    5.7076   -9.1240    0.0000 C   0  0
    7.8526   -8.7260    0.0000 O   0  0
    7.8526   -5.4164    0.0000 O   0  0
    9.2862   -7.9041    0.0000 Cl  0  0
    5.7076   -9.9385    0.0000 O   0  0
   10.7014   -5.4091    0.0000 O   0  0
    6.4152   -6.2383    0.0000 C   0  0
    5.7039   -7.4877    0.0000 C   0  0
    9.2751   -5.4201    0.0000 C   0  0
    9.9975   -6.6474    0.0000 C   0  0
    5.7039   -6.6547    0.0000 C   0  0
    5.0000   -8.7149    0.0000 C   0  0
    9.9828   -5.0000    0.0000 C   0  0
   10.7051   -6.2383    0.0000 C   0  0
  2  1  2  0
  3  1  1  0
  4  2  1  0
  5  3  1  0
  6  5  2  0
  7  5  1  0
  8  2  1  0
  9  7  1  0
 10  9  1  0
 11  3  2  0
 12  4  2  0
 13  1  1  0
 14 10  2  0
 15 23  1  0
 16  6  1  0
 17  7  2  0
 18  8  1  0
 19  8  1  0
 20 17  1  0
 21 10  1  0
 22 18  1  0
 23 19  1  0
  4  6  1  0
 22 15  1  0
 16 20  2  0
M  END
> <COMPOUND_ID>
DNDI1417474

$$$$

  SciTegic04051205032D

 20 22  0  0  0  0            999 V2000
    7.1258   -9.1265    0.0000 C   0  0
    6.4210   -8.7286    0.0000 C   0  0
    7.1258   -7.4895    0.0000 C   0  0
    7.8382   -8.7286    0.0000 C   0  0
    6.4210   -7.8912    0.0000 C   0  0
    7.8382   -7.8912    0.0000 C   0  0
    7.8382   -6.2315    0.0000 N   0  0
    7.1258   -6.6521    0.0000 C   0  0
    5.7124   -9.1265    0.0000 N   0  0
    7.1258   -9.9602    0.0000 O   0  0
    8.5809   -9.1417    0.0000 Br  0  0
    8.5657   -6.6521    0.0000 C   0  0
    7.8382   -5.4130    0.0000 C   0  0
    9.2743   -6.2315    0.0000 C   0  0
    8.5657   -5.0000    0.0000 C   0  0
    9.2743   -5.4130    0.0000 C   0  0
    5.7124   -7.4895    0.0000 C   0  0
    5.0000   -8.7286    0.0000 C   0  0
    9.9867   -5.0152    0.0000 C   0  0
    5.0000   -7.8912    0.0000 C   0  0
  2  1  2  0
  3  6  1  0
  4  1  1  0
  5  2  1  0
  6  4  2  0
  7  8  1  0
  8  3  1  0
  9  2  1  0
 10  1  1  0
 11  4  1  0
 12  7  1  0
 13  7  1  0
 14 12  1  0
 15 13  1  0
 16 15  1  0
 17  5  1  0
 18  9  2  0
 19 16  1  0
 20 18  1  0
  3  5  2  0
 17 20  2  0
 14 16  1  0
M  END
> <COMPOUND_ID>
DNDI1417475

$$$$

  SciTegic04051205032D

 25 27  0  0  0  0            999 V2000
    7.8698   -8.6975    0.0000 C   0  0
    8.5657   -9.1175    0.0000 N   0  0
    8.5657   -7.4705    0.0000 C   0  0
    7.8698   -7.8781    0.0000 C   0  0
    9.2945   -8.6975    0.0000 C   0  0
    7.1534   -9.1175    0.0000 C   0  0
    9.2945   -7.8781    0.0000 C   0  0
    7.1534   -7.4705    0.0000 C   0  0
    8.5657   -6.6512    0.0000 C   0  0
   10.0151   -9.1298    0.0000 N   0  0
    6.4369   -8.6975    0.0000 C   0  0
    6.4369   -7.8781    0.0000 C   0  0
   12.8602   -9.2039    0.0000 N   0  0
   11.4479   -9.1710    0.0000 C   0  0
    5.7164   -9.1298    0.0000 O   0  0
   10.7438   -8.7222    0.0000 C   0  0
   12.1767   -8.7758    0.0000 C   0  0
    9.2945   -6.2312    0.0000 C   0  0
    7.8698   -6.2312    0.0000 C   0  0
   13.5849   -8.8292    0.0000 C   0  0
   12.8519  -10.0192    0.0000 C   0  0
    5.0000   -8.6975    0.0000 C   0  0
    7.8698   -5.4118    0.0000 C   0  0
    9.2945   -5.4118    0.0000 C   0  0
    8.5657   -5.0000    0.0000 C   0  0
  2  1  1  0
  3  4  1  0
  4  1  2  0
  5  2  2  0
  6  1  1  0
  7  5  1  0
  8  4  1  0
  9  3  1  0
 10  5  1  0
 11  6  2  0
 12 11  1  0
 13 17  1  0
 14 16  1  0
 15 11  1  0
 16 10  1  0
 17 14  1  0
 18  9  2  0
 19  9  1  0
 20 13  1  0
 21 13  1  0
 22 15  1  0
 23 19  2  0
 24 18  1  0
 25 23  1  0
 12  8  2  0
  7  3  2  0
 25 24  2  0
M  END
> <COMPOUND_ID>
DNDI1417476

$$$$

  SciTegic04051205032D

 25 27  0  0  0  0            999 V2000
    6.5152   -8.8606    0.0000 N   0  0
    7.3293   -8.6668    0.0000 C   0  0
    7.4165   -7.8527    0.0000 C   0  0
    6.6412   -7.5263    0.0000 C   0  0
    6.1049   -8.1402    0.0000 C   0  0
   12.3918   -6.6670    0.0000 C   0  0
   13.1218   -6.2147    0.0000 N   0  0
   11.6745   -6.2729    0.0000 C   0  0
   12.3918   -7.4811    0.0000 C   0  0
    8.1144   -7.4424    0.0000 C   0  0
   10.9670   -6.6734    0.0000 C   0  0
   11.6745   -7.8527    0.0000 C   0  0
    9.5585   -7.4617    0.0000 N   0  0
   10.9670   -7.4617    0.0000 C   0  0
    7.9690   -9.1869    0.0000 C   0  0
    6.3698   -6.7704    0.0000 C   0  0
    5.2779   -8.0077    0.0000 C   0  0
   13.8196   -6.6089    0.0000 C   0  0
   13.1315   -5.3166    0.0000 C   0  0
   10.2401   -7.8655    0.0000 C   0  0
    8.8316   -7.8655    0.0000 C   0  0
   14.5175   -6.1888    0.0000 C   0  0
   12.3562   -5.0000    0.0000 C   0  0
    5.5654   -6.5895    0.0000 C   0  0
    5.0000   -7.2001    0.0000 C   0  0
  2  1  1  0
  3  2  2  0
  4  5  2  0
  5  1  1  0
  6  9  2  0
  7  6  1  0
  8 11  2  0
  9 12  1  0
 10  3  1  0
 11 14  1  0
 12 14  2  0
 13 21  1  0
 14 20  1  0
 15  2  1  0
 16  4  1  0
 17  5  1  0
 18  7  1  0
 19  7  1  0
 20 13  1  0
 21 10  1  0
 22 18  1  0
 23 19  1  0
 24 25  1  0
 25 17  2  0
  3  4  1  0
 24 16  2  0
  6  8  1  0
M  END
> <COMPOUND_ID>
DNDI1417477

$$$$

  SciTegic04051205032D

 24 26  0  0  0  0            999 V2000
    7.4985   -7.1899    0.0000 N   0  0
    6.6810   -7.1710    0.0000 C   0  0
    9.1686   -7.1737    0.0000 C   0  0
    8.7437   -6.4753    0.0000 C   0  0
    7.9045   -6.4753    0.0000 N   0  0
    6.2560   -7.8748    0.0000 C   0  0
    9.9943   -7.1737    0.0000 C   0  0
    5.4304   -7.8748    0.0000 N   0  0
    6.2831   -6.4564    0.0000 C   0  0
    9.1470   -5.7444    0.0000 O   0  0
   10.4220   -6.4862    0.0000 Cl  0  0
    8.7653   -7.8857    0.0000 C   0  0
    5.0000   -8.5759    0.0000 C   0  0
    6.6431   -8.6111    0.0000 C   0  0
   10.4057   -7.8613    0.0000 C   0  0
    6.7026   -5.7418    0.0000 C   0  0
    5.4574   -6.4402    0.0000 C   0  0
    9.1795   -8.6138    0.0000 C   0  0
    5.3925   -9.3176    0.0000 C   0  0
    6.2993   -5.0190    0.0000 C   0  0
    6.2235   -9.3176    0.0000 C   0  0
    5.0568   -5.7174    0.0000 C   0  0
    9.9943   -8.5895    0.0000 C   0  0
    5.4764   -5.0000    0.0000 C   0  0
  2  1  2  0
  3  4  1  0
  4  5  1  0
  5  1  1  0
  6  2  1  0
  7  3  1  0
  8  6  2  0
  9  2  1  0
 10  4  2  0
 11  7  1  0
 12  3  2  0
 13  8  1  0
 14  6  1  0
 15  7  2  0
 16  9  2  0
 17  9  1  0
 18 12  1  0
 19 13  2  0
 20 16  1  0
 21 14  2  0
 22 17  2  0
 23 18  2  0
 24 20  2  0
 19 21  1  0
 24 22  1  0
 23 15  1  0
M  END
> <COMPOUND_ID>
DNDI1417478

$$$$

  SciTegic04051205032D

 20 21  0  0  0  0            999 V2000
    9.3224   -7.2390    0.0000 C   0  0
    8.7818   -7.8479    0.0000 C   0  0
    7.7442   -6.8813    0.0000 N   0  0
    6.9305   -6.6984    0.0000 C   0  0
    6.3625   -7.2909    0.0000 C   0  0
    5.5761   -7.0888    0.0000 C   0  0
    7.9981   -7.6759    0.0000 O   0  0
    5.8710   -5.7236    0.0000 C   0  0
   10.1334   -7.4001    0.0000 C   0  0
    9.0275   -8.6316    0.0000 O   0  0
    5.3331   -6.3161    0.0000 C   0  0
    6.7011   -5.9092    0.0000 C   0  0
   10.3928   -8.1483    0.0000 Br  0  0
    9.0631   -6.4444    0.0000 C   0  0
    5.0000   -7.7223    0.0000 C   0  0
    5.0655   -5.5406    0.0000 C   0  0
    6.2997   -5.0000    0.0000 C   0  0
   10.6932   -6.7912    0.0000 C   0  0
    9.6228   -5.8219    0.0000 C   0  0
   10.4365   -6.0048    0.0000 C   0  0
  2  1  1  0
  3  7  1  0
  4  3  2  0
  5  4  1  0
  6  5  2  0
  7  2  1  0
  8 12  1  0
  9  1  1  0
 10  2  2  0
 11  6  1  0
 12  4  1  0
 13  9  1  0
 14  1  2  0
 15  6  1  0
 16  8  1  0
 17  8  1  0
 18  9  2  0
 19 14  1  0
 20 19  2  0
 20 18  1  0
 11  8  1  0
M  END
> <COMPOUND_ID>
DNDI1417479

$$$$

  SciTegic04051205032D

 20 22  0  0  0  0            999 V2000
    7.1405   -5.4617    0.0000 C   0  0
    6.4158   -6.7012    0.0000 C   0  0
    7.1405   -6.2759    0.0000 C   0  0
    5.7219   -6.3039    0.0000 C   0  0
    5.7219   -5.4617    0.0000 C   0  0
    6.4158   -5.0560    0.0000 C   0  0
    8.5871   -5.4337    0.0000 N   0  0
    7.8595   -5.0280    0.0000 C   0  0
   10.0057   -6.2424    0.0000 N   0  0
    6.4158   -7.5406    0.0000 N   0  0
    5.0000   -5.0280    0.0000 Br  0  0
    9.3089   -5.0000    0.0000 C   0  0
    8.6122   -6.2424    0.0000 C   0  0
   10.0057   -5.4057    0.0000 C   0  0
    9.3089   -6.6480    0.0000 C   0  0
    7.8595   -6.7012    0.0000 O   0  0
    5.0000   -6.7320    0.0000 C   0  0
   10.7275   -6.6732    0.0000 C   0  0
    5.7219   -7.9491    0.0000 C   0  0
    5.0000   -7.5406    0.0000 C   0  0
  2  3  2  0
  3  1  1  0
  4  5  2  0
  5  6  1  0
  6  1  2  0
  7  8  1  0
  8  1  1  0
  9 14  1  0
 10  2  1  0
 11  5  1  0
 12  7  1  0
 13  7  1  0
 14 12  1  0
 15 13  1  0
 16  3  1  0
 17  4  1  0
 18  9  1  0
 19 10  2  0
 20 17  2  0
  4  2  1  0
  9 15  1  0
 20 19  1  0
M  END
> <COMPOUND_ID>
DNDI1417480

$$$$

  SciTegic04051205032D

 20 20  0  0  0  0            999 V2000
    6.7172   -6.6239    0.0000 C   0  0
    6.5245   -7.4328    0.0000 S   0  0
    7.4991   -6.3931    0.0000 N   0  0
    6.1118   -6.0402    0.0000 C   0  0
    8.0963   -6.9578    0.0000 C   0  0
    7.3335   -7.6310    0.0000 O   0  0
    5.7209   -7.2238    0.0000 O   0  0
    6.3209   -8.2419    0.0000 C   0  0
    7.8954   -7.7641    0.0000 O   0  0
    5.3300   -6.2682    0.0000 Cl  0  0
    6.3209   -5.2475    0.0000 Cl  0  0
    8.8944   -6.7243    0.0000 C   0  0
    9.4889   -7.2944    0.0000 C   0  0
    6.9127   -8.8310    0.0000 C   0  0
    5.5336   -8.4400    0.0000 C   0  0
   10.2708   -7.0610    0.0000 C   0  0
    9.2962   -8.0871    0.0000 C   0  0
    5.3219   -9.2382    0.0000 C   0  0
    6.7036   -9.6128    0.0000 C   0  0
    5.9136   -9.8327    0.0000 C   0  0
  2  1  1  0
  3  1  1  0
  4  1  2  0
  5  3  1  0
  6  2  2  0
  7  2  2  0
  8  2  1  0
  9  5  2  0
 10  4  1  0
 11  4  1  0
 12  5  1  0
 13 12  1  0
 14  8  1  0
 15  8  2  0
 16 13  1  0
 17 13  1  0
 18 15  1  0
 19 14  2  0
 20 19  1  0
 20 18  2  0
M  END
> <COMPOUND_ID>
DNDI1417481

$$$$

  SciTegic04051205032D

 25 27  0  0  0  0            999 V2000
    7.1408   -9.9706    0.0000 C   0  0
    7.1408   -9.1342    0.0000 C   0  0
    7.8630  -10.3833    0.0000 N   0  0
    7.1297   -7.4835    0.0000 N   0  0
    6.4222   -7.8962    0.0000 N   0  0
    7.1297   -6.6581    0.0000 C   0  0
    6.4222   -8.7215    0.0000 C   0  0
    7.8630   -8.7215    0.0000 C   0  0
    6.4222  -10.3833    0.0000 C   0  0
    6.4222   -6.2454    0.0000 C   0  0
    9.2963  -11.2086    0.0000 N   0  0
    7.8372   -6.2381    0.0000 C   0  0
    9.2963  -10.3833    0.0000 C   0  0
    8.5815   -9.9706    0.0000 C   0  0
    5.7075   -9.1342    0.0000 C   0  0
    5.7075   -9.9706    0.0000 C   0  0
    6.4149   -5.4311    0.0000 C   0  0
    8.5815   -9.1342    0.0000 C   0  0
    7.8298   -5.4201    0.0000 C   0  0
   10.0037  -11.6103    0.0000 O   0  0
    7.1224   -5.0000    0.0000 C   0  0
    6.4222  -11.2086    0.0000 O   0  0
    5.7075   -6.6544    0.0000 O   0  0
    8.5373   -5.0221    0.0000 C   0  0
    5.0000   -6.2454    0.0000 C   0  0
  2  1  2  0
  3  1  1  0
  4  5  2  0
  5  7  1  0
  6  4  1  0
  7  2  1  0
  8  2  1  0
  9  1  1  0
 10  6  1  0
 11 13  2  0
 12  6  2  0
 13 14  1  0
 14  3  2  0
 15 16  1  0
 16  9  2  0
 17 10  2  0
 18 14  1  0
 19 12  1  0
 20 11  1  0
 21 19  2  0
 22  9  1  0
 23 10  1  0
 24 19  1  0
 25 23  1  0
  7 15  2  0
  8 18  2  0
 17 21  1  0
M  END
> <COMPOUND_ID>
DNDI1417482

$$$$

  SciTegic04051205032D

 25 28  0  0  0  0            999 V2000
    7.1538   -6.2462    0.0000 C   0  0
    6.4422   -6.6447    0.0000 C   0  0
    7.8654   -6.6447    0.0000 C   0  0
    7.8654   -7.4764    0.0000 C   0  0
    6.4422   -7.4764    0.0000 C   0  0
    5.7211   -6.2462    0.0000 N   0  0
    7.1538   -7.8939    0.0000 C   0  0
   10.7309   -7.4764    0.0000 C   0  0
    9.3045   -7.4764    0.0000 N   0  0
   10.0161   -7.8939    0.0000 N   0  0
    8.5834   -7.8939    0.0000 C   0  0
   10.7309   -6.6447    0.0000 O   0  0
   12.8625   -8.7036    0.0000 N   0  0
   11.4330   -7.8939    0.0000 C   0  0
    8.5834   -6.2462    0.0000 O   0  0
    7.1538   -5.4175    0.0000 C   0  0
    5.7211   -7.8939    0.0000 C   0  0
    5.7211   -5.4175    0.0000 C   0  0
    5.0158   -6.6447    0.0000 C   0  0
    6.4422   -5.0000    0.0000 C   0  0
    5.0000   -7.4764    0.0000 C   0  0
   12.1509   -9.1116    0.0000 C   0  0
   12.8625   -7.8939    0.0000 C   0  0
   11.4330   -8.7036    0.0000 C   0  0
   12.1509   -7.4764    0.0000 C   0  0
  2  1  1  0
  3  1  2  0
  4  3  1  0
  5  2  2  0
  6  2  1  0
  7  4  2  0
  8 10  1  0
  9 11  2  0
 10  9  1  0
 11  4  1  0
 12  8  2  0
 13 23  2  0
 14  8  1  0
 15  3  1  0
 16  1  1  0
 17  5  1  0
 18 20  1  0
 19  6  1  0
 20 16  1  0
 21 19  1  0
 22 24  2  0
 23 25  1  0
 24 14  1  0
 25 14  2  0
  6 18  1  0
  5  7  1  0
 17 21  1  0
 22 13  1  0
M  END
> <COMPOUND_ID>
DNDI1417483

$$$$

  SciTegic04051205032D

 22 24  0  0  0  0            999 V2000
    5.7146   -8.3681    0.0000 C   0  0
    5.7146   -7.5378    0.0000 C   0  0
    6.4381   -7.1282    0.0000 C   0  0
    8.5595   -5.8927    0.0000 C   0  0
    5.0512   -8.8534    0.0000 S   0  0
    7.8649   -7.1282    0.0000 C   0  0
    7.8516   -6.3201    0.0000 C   0  0
    7.1526   -7.5378    0.0000 C   0  0
    9.2852   -6.3068    0.0000 C   0  0
    8.7264   -5.0935    0.0000 O   0  0
    9.8818   -5.7436    0.0000 O   0  0
    9.5479   -5.0000    0.0000 C   0  0
    6.3869   -8.8534    0.0000 C   0  0
    5.3005   -9.6392    0.0000 C   0  0
    5.0000   -7.1282    0.0000 O   0  0
    8.5773   -7.5378    0.0000 C   0  0
    6.1509   -9.6347    0.0000 C   0  0
    9.2852   -7.1282    0.0000 C   0  0
    7.1526   -8.3681    0.0000 S   0  0
    9.3030   -8.7755    0.0000 O   0  0
    7.8761   -8.7888    0.0000 C   0  0
    8.5862   -8.3681    0.0000 C   0  0
  2  1  1  0
  3  2  1  0
  4  7  2  0
  5  1  1  0
  6  8  1  0
  7  6  1  0
  8  3  1  0
  9 18  2  0
 10  4  1  0
 11  9  1  0
 12 10  1  0
 13  1  2  0
 14  5  1  0
 15  2  2  0
 16  6  2  0
 17 13  1  0
 18 16  1  0
 19  8  1  0
 20 22  1  0
 21 19  1  0
 22 21  1  0
 14 17  2  0
  9  4  1  0
 12 11  1  0
M  END
> <COMPOUND_ID>
DNDI1417484

$$$$

  SciTegic04051205032D

 24 27  0  0  0  0            999 V2000
    9.3731   -7.9464    0.0000 C   0  0
    7.9042   -6.2742    0.0000 C   0  0
    8.6408   -7.5400    0.0000 N   0  0
    8.6408   -6.7018    0.0000 C   0  0
   10.1013   -7.5400    0.0000 C   0  0
    7.1760   -6.6849    0.0000 C   0  0
    9.5298   -8.7592    0.0000 N   0  0
    9.3901   -6.2742    0.0000 C   0  0
    6.4648   -6.2742    0.0000 C   0  0
   10.3426   -8.8608    0.0000 O   0  0
    7.9042   -5.4276    0.0000 C   0  0
   10.1859   -6.5452    0.0000 S   0  0
   10.7109   -8.1073    0.0000 C   0  0
    5.7324   -6.6849    0.0000 N   0  0
    9.3901   -5.4445    0.0000 C   0  0
   10.6474   -5.8340    0.0000 C   0  0
    6.4648   -5.4276    0.0000 C   0  0
    7.1760   -5.0000    0.0000 C   0  0
   10.1859   -5.1778    0.0000 C   0  0
    7.1760   -7.5400    0.0000 O   0  0
   10.0759   -7.0701    0.0000 C   0  0
    5.0000   -6.2742    0.0000 C   0  0
    5.7324   -5.0000    0.0000 C   0  0
    5.0000   -5.4276    0.0000 C   0  0
  2  4  1  0
  3  1  1  0
  4  3  1  0
  5  1  1  0
  6  2  2  0
  7  1  2  0
  8  4  1  0
  9  6  1  0
 10  7  1  0
 11  2  1  0
 12  8  1  0
 13  5  2  0
 14  9  1  0
 15  8  2  0
 16 12  1  0
 17 18  1  0
 18 11  2  0
 19 15  1  0
 20  6  1  0
 21  5  1  0
 22 14  2  0
 23 17  1  0
 24 23  2  0
 10 13  1  0
 16 19  2  0
 17  9  2  0
 24 22  1  0
M  END
> <COMPOUND_ID>
DNDI1417485

$$$$

  SciTegic04051205032D

 24 27  0  0  0  0            999 V2000
    7.9423   -6.4918    0.0000 N   0  0
   10.4757   -6.5159    0.0000 C   0  0
    8.4133   -5.8215    0.0000 C   0  0
    7.1449   -6.2443    0.0000 C   0  0
   11.0394   -5.9109    0.0000 S   0  0
    9.6541   -6.5330    0.0000 N   0  0
   10.8985   -7.2377    0.0000 N   0  0
    9.2313   -5.8215    0.0000 C   0  0
   11.6926   -7.0556    0.0000 N   0  0
    6.4231   -6.6671    0.0000 C   0  0
    7.9423   -5.1753    0.0000 C   0  0
    7.1449   -5.4228    0.0000 C   0  0
    6.4231   -7.4852    0.0000 N   0  0
   11.7854   -6.2443    0.0000 C   0  0
    5.7218   -6.2443    0.0000 C   0  0
    9.6541   -5.0996    0.0000 O   0  0
    6.4402   -5.0000    0.0000 C   0  0
    5.7046   -7.9080    0.0000 C   0  0
    5.7287   -5.4228    0.0000 C   0  0
    5.0000   -6.6671    0.0000 C   0  0
    5.0000   -7.4852    0.0000 C   0  0
   12.5141   -5.8387    0.0000 C   0  0
    5.7046   -8.7295    0.0000 C   0  0
   12.5382   -5.0000    0.0000 C   0  0
  2  6  1  0
  3  1  1  0
  4  1  1  0
  5  2  1  0
  6  8  1  0
  7  2  2  0
  8  3  1  0
  9  7  1  0
 10  4  1  0
 11  3  2  0
 12  4  2  0
 13 10  1  0
 14  5  1  0
 15 10  2  0
 16  8  2  0
 17 12  1  0
 18 13  2  0
 19 17  2  0
 20 15  1  0
 21 20  2  0
 22 14  1  0
 23 18  1  0
 24 22  1  0
 12 11  1  0
 15 19  1  0
 18 21  1  0
 14  9  2  0
M  END
> <COMPOUND_ID>
DNDI1417486

$$$$

  SciTegic04051205032D

 25 27  0  0  0  0            999 V2000
    7.6412  -10.1861    0.0000 C   0  0
    7.1631   -9.5086    0.0000 N   0  0
    7.1563  -10.8739    0.0000 N   0  0
    6.3928   -9.7665    0.0000 C   0  0
    6.3893  -10.6056    0.0000 C   0  0
    8.4528  -10.1930    0.0000 N   0  0
    7.3729   -8.6867    0.0000 C   0  0
    9.1475   -7.4383    0.0000 O   0  0
    9.3572   -6.6267    0.0000 C   0  0
    7.1493  -11.7027    0.0000 C   0  0
    7.8715  -12.1223    0.0000 C   0  0
   10.1448   -6.3997    0.0000 C   0  0
    8.1604   -8.4700    0.0000 C   0  0
    7.8682  -12.9511    0.0000 C   0  0
    8.3668   -7.6584    0.0000 C   0  0
    5.6912   -9.3470    0.0000 C   0  0
    5.7049  -11.0183    0.0000 C   0  0
    8.7313   -9.0615    0.0000 O   0  0
    8.7795   -6.0283    0.0000 C   0  0
   10.7260   -6.9775    0.0000 C   0  0
   10.3511   -5.5915    0.0000 C   0  0
    5.0000  -10.6056    0.0000 C   0  0
    5.0000   -9.7665    0.0000 C   0  0
    9.7699   -5.0000    0.0000 C   0  0
    8.9858   -5.2236    0.0000 C   0  0
  2  1  1  0
  3  1  1  0
  4  2  1  0
  5  3  1  0
  6  1  2  0
  7  2  1  0
  8 15  1  0
  9  8  1  0
 10  3  1  0
 11 10  1  0
 12  9  2  0
 13  7  1  0
 14 11  2  0
 15 13  1  0
 16  4  2  0
 17  5  2  0
 18 13  1  0
 19  9  1  0
 20 12  1  0
 21 12  1  0
 22 17  1  0
 23 16  1  0
 24 25  1  0
 25 19  2  0
  4  5  1  0
 23 22  2  0
 21 24  2  0
M  END
> <COMPOUND_ID>
DNDI1417487

$$$$

  SciTegic04051205032D

 25 27  0  0  0  0            999 V2000
    7.1174   -6.3164    0.0000 C   0  0
    6.8463   -7.0989    0.0000 N   0  0
    7.8948   -6.0555    0.0000 C   0  0
    6.4525   -5.8356    0.0000 C   0  0
   12.0170   -6.6438    0.0000 C   0  0
    6.0382   -7.0989    0.0000 N   0  0
   11.3573   -7.1398    0.0000 O   0  0
   11.7665   -5.8663    0.0000 C   0  0
   10.6873   -6.6438    0.0000 C   0  0
   14.8249   -6.0555    0.0000 C   0  0
   12.8099   -6.9046    0.0000 C   0  0
    5.7825   -6.3164    0.0000 C   0  0
   14.2112   -6.6131    0.0000 C   0  0
    9.2910   -6.3471    0.0000 N   0  0
   10.9380   -5.8663    0.0000 C   0  0
   13.4133   -6.3471    0.0000 C   0  0
    9.9099   -6.9046    0.0000 C   0  0
    8.5137   -6.6131    0.0000 N   0  0
    8.0737   -5.2475    0.0000 O   0  0
   14.6459   -5.2475    0.0000 O   0  0
   15.6074   -6.3164    0.0000 O   0  0
   12.9735   -7.7126    0.0000 C   0  0
   14.3698   -7.4160    0.0000 C   0  0
   13.7714   -7.9633    0.0000 C   0  0
    5.0000   -6.0555    0.0000 C   0  0
  2  1  1  0
  3  1  1  0
  4  1  2  0
  5  7  1  0
  6  2  1  0
  7  9  1  0
  8 15  1  0
  9 17  1  0
 10 13  1  0
 11  5  1  0
 12  4  1  0
 13 16  1  0
 14 18  1  0
 15  9  2  0
 16 11  2  0
 17 14  2  0
 18  3  1  0
 19  3  2  0
 20 10  2  0
 21 10  1  0
 22 11  1  0
 23 24  1  0
 24 22  2  0
 25 12  1  0
 12  6  2  0
  8  5  2  0
 23 13  2  0
M  END
> <COMPOUND_ID>
DNDI1417488

$$$$

  SciTegic04051205032D

 25 27  0  0  0  0            999 V2000
    8.6006   -6.2341    0.0000 C   0  0
    9.3120   -6.6551    0.0000 C   0  0
    7.8747   -6.6551    0.0000 C   0  0
   10.0234   -6.2437    0.0000 C   0  0
    7.8747   -7.4827    0.0000 N   0  0
    7.1584   -6.2341    0.0000 C   0  0
    8.6006   -5.4210    0.0000 C   0  0
    7.1584   -7.8843    0.0000 C   0  0
   10.7348   -6.6551    0.0000 N   0  0
    6.4373   -6.6551    0.0000 C   0  0
   10.0234   -5.4210    0.0000 C   0  0
    9.3120   -5.0096    0.0000 C   0  0
    6.4373   -7.4681    0.0000 O   0  0
    9.3120   -7.4778    0.0000 O   0  0
    5.7210   -6.2437    0.0000 C   0  0
    5.0000   -6.6502    0.0000 F   0  0
    7.1487   -5.4065    0.0000 C   0  0
    6.4373   -5.0000    0.0000 C   0  0
    7.1487   -8.7022    0.0000 C   0  0
   11.4462   -6.2341    0.0000 C   0  0
    5.7210   -5.4161    0.0000 C   0  0
   10.7348   -5.0096    0.0000 C   0  0
    6.4325   -9.1232    0.0000 C   0  0
   11.4462   -5.4210    0.0000 C   0  0
    6.4228   -9.9508    0.0000 C   0  0
  2  1  1  0
  3  1  1  0
  4  2  2  0
  5  3  1  0
  6  3  1  0
  7  1  2  0
  8  5  1  0
  9  4  1  0
 10  6  1  0
 11 12  2  0
 12  7  1  0
 13  8  2  0
 14  2  1  0
 15 10  2  0
 16 15  1  0
 17  6  2  0
 18 17  1  0
 19  8  1  0
 20  9  2  0
 21 18  2  0
 22 11  1  0
 23 19  1  0
 24 22  2  0
 25 23  1  0
 11  4  1  0
 24 20  1  0
 21 15  1  0
M  END
> <COMPOUND_ID>
DNDI1417489

$$$$

  SciTegic04051205032D

 25 28  0  0  0  0            999 V2000
    7.1992   -7.3026    0.0000 C   0  0
    5.7713   -7.2268    0.0000 N   0  0
    6.5128   -6.8549    0.0000 C   0  0
    9.3617   -7.0133    0.0000 C   0  0
    7.9361   -6.9215    0.0000 C   0  0
    8.6248   -7.3806    0.0000 C   0  0
   10.0412   -7.4610    0.0000 C   0  0
   10.7804   -7.1005    0.0000 C   0  0
    5.7323   -8.0532    0.0000 C   0  0
    7.1579   -8.1313    0.0000 C   0  0
    6.4210   -8.5009    0.0000 N   0  0
   11.3657   -7.6837    0.0000 O   0  0
   11.0053   -8.4343    0.0000 C   0  0
   10.8355   -6.2856    0.0000 C   0  0
    8.5858   -8.2002    0.0000 C   0  0
   10.1399   -8.2506    0.0000 C   0  0
    9.4099   -6.1961    0.0000 C   0  0
    7.8558   -8.5789    0.0000 C   0  0
   10.1513   -5.8288    0.0000 C   0  0
    6.5518   -6.0331    0.0000 N   0  0
    5.0000   -8.4274    0.0000 N   0  0
   10.1996   -5.0000    0.0000 F   0  0
    7.9751   -6.1088    0.0000 C   0  0
   10.7689   -9.2263    0.0000 C   0  0
   11.7606   -8.7511    0.0000 C   0  0
  2  3  2  0
  3  1  1  0
  4  6  1  0
  5  1  1  0
  6  5  2  0
  7  4  1  0
  8  7  2  0
  9  2  1  0
 10  1  2  0
 11 10  1  0
 12  8  1  0
 13 16  1  0
 14 19  2  0
 15 18  2  0
 16  7  1  0
 17  4  2  0
 18 10  1  0
 19 17  1  0
 20  3  1  0
 21  9  1  0
 22 19  1  0
 23  5  1  0
 24 13  1  0
 25 13  1  0
  9 11  2  0
 15  6  1  0
 14  8  1  0
 13 12  1  0
M  END
> <COMPOUND_ID>
DNDI1417490

$$$$

  SciTegic04051205032D

 25 27  0  0  0  0            999 V2000
    7.1426   -7.0679    0.0000 C   0  0
    7.8583   -7.4880    0.0000 C   0  0
    7.8583   -8.3160    0.0000 C   0  0
    7.1426   -8.7237    0.0000 C   0  0
    6.4312   -7.4922    0.0000 C   0  0
    6.4271   -8.3160    0.0000 C   0  0
    8.5697   -7.0762    0.0000 C   0  0
    8.5697   -6.2482    0.0000 N   0  0
    7.1385   -6.2399    0.0000 O   0  0
    7.1426   -9.5517    0.0000 O   0  0
   11.4238   -6.2357    0.0000 N   0  0
    9.2770   -5.8322    0.0000 C   0  0
    9.9926   -6.2399    0.0000 C   0  0
    8.5697   -8.7237    0.0000 C   0  0
   10.7124   -5.8280    0.0000 C   0  0
    5.7197   -7.0762    0.0000 C   0  0
    5.7156   -8.7237    0.0000 C   0  0
    9.9926   -7.0679    0.0000 O   0  0
    9.2812   -8.3160    0.0000 C   0  0
   12.1395   -5.8238    0.0000 C   0  0
    9.2812   -7.4839    0.0000 C   0  0
   12.8551   -6.2316    0.0000 C   0  0
   12.1395   -5.0000    0.0000 C   0  0
    5.0000   -7.4880    0.0000 C   0  0
    5.0000   -8.3160    0.0000 C   0  0
  2  1  1  0
  3  2  2  0
  4  6  1  0
  5  1  1  0
  6  5  2  0
  7  2  1  0
  8  7  1  0
  9  1  2  0
 10  4  2  0
 11 15  1  0
 12  8  1  0
 13 12  1  0
 14  3  1  0
 15 13  1  0
 16  5  1  0
 17  6  1  0
 18 13  1  0
 19 21  1  0
 20 11  1  0
 21  7  2  0
 22 20  1  0
 23 20  1  0
 24 16  2  0
 25 17  2  0
  4  3  1  0
 25 24  1  0
 19 14  2  0
M  END
> <COMPOUND_ID>
DNDI1417491

$$$$

  SciTegic04051205032D

 22 25  0  0  0  0            999 V2000
    7.5413   -8.9115    0.0000 N   0  0
    7.7400   -7.5422    0.0000 N   0  0
    7.1325   -8.1451    0.0000 C   0  0
    8.3895   -8.7596    0.0000 N   0  0
    8.5134   -7.9161    0.0000 N   0  0
    6.9665   -9.4185    0.0000 C   0  0
    7.5951   -6.6940    0.0000 C   0  0
    6.6488  -10.2270    0.0000 C   0  0
    6.0015   -9.6849    0.0000 O   0  0
    6.4291   -9.5681    0.0000 C   0  0
    5.2585   -9.6849    0.0000 C   0  0
    5.5412   -9.1171    0.0000 C   0  0
    5.1650  -10.2691    0.0000 O   0  0
    6.2726   -8.0283    0.0000 S   0  0
    5.9174  -10.6780    0.0000 C   0  0
    8.2564   -6.1403    0.0000 C   0  0
    5.2701   -8.3017    0.0000 O   0  0
    9.0625   -6.4417    0.0000 Cl  0  0
    6.7866   -6.3996    0.0000 C   0  0
    8.1045   -5.3061    0.0000 C   0  0
    6.6301   -5.5538    0.0000 C   0  0
    7.2984   -5.0000    0.0000 C   0  0
  2  3  1  0
  3  1  1  0
  4  1  1  0
  5  4  2  0
  6  1  1  0
  7  2  1  0
  8  6  1  0
  9  8  1  0
 10  6  1  0
 11 12  1  0
 12 10  1  0
 13 15  1  0
 14  3  2  0
 15  8  1  0
 16  7  2  0
 17 12  2  0
 18 16  1  0
 19  7  1  0
 20 16  1  0
 21 19  2  0
 22 21  1  0
  5  2  1  0
 11  9  1  0
 13 11  1  0
 22 20  2  0
M  END
> <COMPOUND_ID>
DNDI1417492

$$$$

  SciTegic04051205032D

 22 25  0  0  0  0            999 V2000
   10.5641   -8.5813    0.0000 S   0  0
    7.7679   -6.9950    0.0000 C   0  0
    7.0759   -7.4078    0.0000 C   0  0
    8.4639   -8.1928    0.0000 N   0  0
    6.3759   -6.9950    0.0000 C   0  0
    7.0880   -8.2049    0.0000 O   0  0
    9.8600   -8.1847    0.0000 C   0  0
    6.3759   -6.2019    0.0000 C   0  0
    8.4639   -7.3956    0.0000 C   0  0
    7.0759   -5.8053    0.0000 C   0  0
    9.1761   -8.5934    0.0000 C   0  0
    7.7841   -8.5975    0.0000 C   0  0
    7.7719   -6.2019    0.0000 C   0  0
   11.3653   -8.5813    0.0000 O   0  0
   10.7785   -7.8043    0.0000 O   0  0
    5.6960   -7.4078    0.0000 N   0  0
   10.5721   -9.3866    0.0000 C   0  0
    9.1761   -9.3987    0.0000 C   0  0
    7.0759   -5.0000    0.0000 Cl  0  0
    5.6960   -5.8053    0.0000 C   0  0
    5.0000   -6.9950    0.0000 C   0  0
    5.0000   -6.2019    0.0000 C   0  0
  2  9  1  0
  3  6  1  0
  4 11  1  0
  5  3  2  0
  6 12  1  0
  7  1  1  0
  8  5  1  0
  9  4  1  0
 10 13  1  0
 11  7  1  0
 12  4  1  0
 13  2  2  0
 14  1  2  0
 15  1  2  0
 16  5  1  0
 17  1  1  0
 18 17  1  0
 19 10  1  0
 20  8  1  0
 21 16  2  0
 22 21  1  0
 18 11  1  0
  3  2  1  0
  8 10  2  0
 20 22  2  0
M  END
> <COMPOUND_ID>
DNDI1417493

$$$$

  SciTegic04051205032D

 22 23  0  0  0  0            999 V2000
    7.8559   -6.6663    0.0000 C   0  0
    7.1305   -6.2518    0.0000 C   0  0
    8.5730   -6.2477    0.0000 C   0  0
    6.4259   -6.6663    0.0000 C   0  0
    7.1305   -5.4270    0.0000 C   0  0
    9.2818   -6.6581    0.0000 C   0  0
    8.5606   -5.4270    0.0000 C   0  0
    5.7129   -5.4270    0.0000 C   0  0
    9.9906   -5.4270    0.0000 C   0  0
    9.9906   -6.2477    0.0000 C   0  0
    9.2736   -5.0124    0.0000 C   0  0
    5.7129   -6.2518    0.0000 C   0  0
    6.4259   -5.0124    0.0000 C   0  0
    9.2736   -9.1368    0.0000 N   0  0
    5.0000   -5.0166    0.0000 Cl  0  0
   10.7078   -5.0000    0.0000 Cl  0  0
    7.8559   -7.4870    0.0000 O   0  0
    9.9782  -11.2052    0.0000 N   0  0
    9.2736   -9.9658    0.0000 C   0  0
    8.5606   -8.7306    0.0000 C   0  0
    9.9906  -10.3720    0.0000 C   0  0
    8.5730   -7.9016    0.0000 C   0  0
  2  1  1  0
  3  1  1  0
  4  2  2  0
  5  2  1  0
  6  3  2  0
  7  3  1  0
  8 13  1  0
  9 11  1  0
 10  6  1  0
 11  7  2  0
 12  4  1  0
 13  5  2  0
 14 20  1  0
 15  8  1  0
 16  9  1  0
 17  1  1  0
 18 21  1  0
 19 14  1  0
 20 22  1  0
 21 19  1  0
 22 17  1  0
  9 10  2  0
  8 12  2  0
M  END
> <COMPOUND_ID>
DNDI1417494

$$$$

  SciTegic04051205032D

 23 25  0  0  0  0            999 V2000
    7.1044   -7.2213    0.0000 S   0  0
   10.6910   -7.1319    0.0000 C   0  0
   10.6910   -5.6602    0.0000 C   0  0
    9.8932   -7.3211    0.0000 N   0  0
    9.8932   -5.4745    0.0000 N   0  0
   11.0521   -6.3960    0.0000 C   0  0
    6.3858   -7.6340    0.0000 N   0  0
    7.8300   -6.8087    0.0000 C   0  0
    9.2536   -6.8087    0.0000 C   0  0
    9.2536   -5.9834    0.0000 C   0  0
    8.5418   -7.2213    0.0000 C   0  0
    6.6918   -6.4958    0.0000 O   0  0
    7.5171   -7.9434    0.0000 O   0  0
   11.2033   -7.7818    0.0000 O   0  0
   11.2033   -5.0000    0.0000 O   0  0
    7.8300   -5.9834    0.0000 C   0  0
    8.5418   -5.5742    0.0000 C   0  0
    5.2098   -8.7928    0.0000 O   0  0
    5.5846   -7.4208    0.0000 C   0  0
    6.5990   -8.4317    0.0000 C   0  0
   11.8739   -6.4098    0.0000 C   0  0
    5.0000   -7.9950    0.0000 C   0  0
    6.0110   -9.0129    0.0000 C   0  0
  2  4  1  0
  3  5  1  0
  4  9  1  0
  5 10  1  0
  6  2  1  0
  7  1  1  0
  8  1  1  0
  9 11  2  0
 10 17  2  0
 11  8  1  0
 12  1  2  0
 13  1  2  0
 14  2  2  0
 15  3  2  0
 16  8  2  0
 17 16  1  0
 18 23  1  0
 19  7  1  0
 20  7  1  0
 21  6  1  0
 22 19  1  0
 23 20  1  0
 18 22  1  0
  9 10  1  0
  6  3  1  0
M  END
> <COMPOUND_ID>
DNDI1417495

$$$$

  SciTegic04051205032D

 26 28  0  0  0  0            999 V2000
   10.7508   -9.6196    0.0000 C   0  0
    9.3883   -9.3220    0.0000 C   0  0
   10.1632   -9.0962    0.0000 C   0  0
   11.5846   -9.3425    0.0000 C   0  0
    8.7264   -8.7960    0.0000 C   0  0
    9.7809  -10.6793    0.0000 N   0  0
   10.5634  -10.4458    0.0000 C   0  0
    9.1907  -10.1046    0.0000 C   0  0
   12.3466   -5.2475    0.0000 N   0  0
    5.1650  -10.7819    0.0000 N   0  0
    5.8886  -10.3766    0.0000 C   0  0
   12.2004   -6.0429    0.0000 C   0  0
   10.3607   -8.2957    0.0000 O   0  0
   11.7642   -8.5240    0.0000 C   0  0
    7.9643   -9.1835    0.0000 C   0  0
    6.5788   -9.9840    0.0000 C   0  0
   12.0593   -6.8512    0.0000 C   0  0
    7.9643   -9.9840    0.0000 C   0  0
    7.2690   -8.7857    0.0000 C   0  0
   12.5622   -8.2367    0.0000 C   0  0
   11.1125   -7.9827    0.0000 C   0  0
   11.2639   -7.1411    0.0000 C   0  0
    7.2690  -10.3766    0.0000 C   0  0
    6.5788   -9.1835    0.0000 C   0  0
   12.7136   -7.4002    0.0000 C   0  0
    9.5936  -11.4824    0.0000 C   0  0
  2  3  1  0
  3  1  1  0
  4  1  2  0
  5  2  2  0
  6  7  1  0
  7  1  1  0
  8  6  1  0
  9 12  3  0
 10 11  3  0
 11 16  1  0
 12 17  1  0
 13  3  2  0
 14  4  1  0
 15  5  1  0
 16 24  1  0
 17 25  1  0
 18 15  2  0
 19 15  1  0
 20 14  1  0
 21 14  2  0
 22 21  1  0
 23 18  1  0
 24 19  2  0
 25 20  2  0
 26  6  1  0
  8  2  1  0
 17 22  2  0
 16 23  2  0
M  END
> <COMPOUND_ID>
DNDI1417496

$$$$

  SciTegic04051205032D

 25 26  0  0  0  0            999 V2000
    8.5791   -7.8948    0.0000 C   0  0
    9.2924   -7.4801    0.0000 C   0  0
    7.8574   -7.4801    0.0000 C   0  0
    9.9974   -7.8948    0.0000 C   0  0
    9.2800   -6.6548    0.0000 C   0  0
    7.8616   -6.6548    0.0000 C   0  0
    7.1524   -7.8907    0.0000 C   0  0
    8.5666  -10.3582    0.0000 N   0  0
    8.5791   -8.7159    0.0000 O   0  0
    9.9933   -6.2400    0.0000 C   0  0
    7.1524   -6.2400    0.0000 C   0  0
    6.4350   -7.4801    0.0000 C   0  0
   10.7150   -7.4801    0.0000 C   0  0
    6.4308   -6.6548    0.0000 C   0  0
   10.7190   -6.6548    0.0000 C   0  0
    7.8574   -9.1141    0.0000 C   0  0
    7.8574   -9.9436    0.0000 C   0  0
    8.5625  -11.1794    0.0000 C   0  0
    9.2800   -9.9436    0.0000 C   0  0
   11.4324   -6.2400    0.0000 C   0  0
    5.7174   -6.2400    0.0000 C   0  0
   11.4282   -5.4230    0.0000 C   0  0
    5.7174   -5.4230    0.0000 C   0  0
   12.1416   -5.0000    0.0000 C   0  0
    5.0000   -5.0042    0.0000 C   0  0
  2  1  1  0
  3  1  1  0
  4  2  2  0
  5  2  1  0
  6  3  2  0
  7  3  1  0
  8 17  1  0
  9  1  1  0
 10  5  2  0
 11  6  1  0
 12  7  2  0
 13  4  1  0
 14 12  1  0
 15 10  1  0
 16  9  1  0
 17 16  1  0
 18  8  1  0
 19  8  1  0
 20 15  1  0
 21 14  1  0
 22 20  1  0
 23 21  1  0
 24 22  1  0
 25 23  1  0
 14 11  2  0
 15 13  2  0
M  END
> <COMPOUND_ID>
DNDI1417497

$$$$

  SciTegic04051205032D

 26 29  0  0  0  0            999 V2000
   10.1862   -7.6898    0.0000 C   0  0
   10.9071   -7.2928    0.0000 C   0  0
   10.9071   -6.4702    0.0000 C   0  0
   10.1862   -6.0637    0.0000 C   0  0
    9.4684   -6.4702    0.0000 C   0  0
    9.4684   -7.2928    0.0000 C   0  0
   10.1862   -8.5124    0.0000 N   0  0
   10.1862   -5.2475    0.0000 O   0  0
    5.1650   -8.9570    0.0000 N   0  0
    9.4779   -8.9157    0.0000 C   0  0
   11.6216   -6.0637    0.0000 O   0  0
    8.0487   -9.7478    0.0000 C   0  0
    7.3532  -10.1702    0.0000 C   0  0
    8.7506   -8.5124    0.0000 C   0  0
    9.4779   -9.7478    0.0000 C   0  0
    8.7506  -10.1607    0.0000 C   0  0
    8.0360   -8.9157    0.0000 C   0  0
    8.7506   -6.0637    0.0000 C   0  0
    6.6259   -9.7636    0.0000 C   0  0
    8.7506   -7.6898    0.0000 C   0  0
    5.9082   -8.5124    0.0000 C   0  0
    5.1999   -9.7478    0.0000 C   0  0
    6.6354   -8.9157    0.0000 C   0  0
    5.9303  -10.1702    0.0000 C   0  0
    8.0360   -6.4702    0.0000 C   0  0
    8.0360   -7.2928    0.0000 C   0  0
  2  1  1  0
  3  2  2  0
  4  3  1  0
  5  6  2  0
  6  1  1  0
  7  1  2  0
  8  4  2  0
  9 21  2  0
 10  7  1  0
 11  3  1  0
 12 16  1  0
 13 12  1  0
 14 10  2  0
 15 10  1  0
 16 15  2  0
 17 14  1  0
 18  5  1  0
 19 13  1  0
 20  6  1  0
 21 23  1  0
 22 24  2  0
 23 19  2  0
 24 19  1  0
 25 26  1  0
 26 20  2  0
  4  5  1  0
 12 17  2  0
 25 18  2  0
  9 22  1  0
M  END
> <COMPOUND_ID>
DNDI1417498

$$$$

  SciTegic04051205032D

 24 26  0  0  0  0            999 V2000
    7.8602   -6.4924    0.0000 C   0  0
    7.1441   -6.9087    0.0000 N   0  0
    7.8560   -5.6639    0.0000 C   0  0
    7.1400   -5.2559    0.0000 N   0  0
    6.4321   -6.4965    0.0000 C   0  0
    6.4321   -5.6722    0.0000 C   0  0
    8.5763   -7.7289    0.0000 N   0  0
    8.5763   -6.9046    0.0000 N   0  0
    9.2965   -8.9612    0.0000 C   0  0
   10.0043   -9.3692    0.0000 C   0  0
    9.2965   -8.1369    0.0000 C   0  0
    8.5679   -5.2475    0.0000 S   0  0
   10.7162   -8.9529    0.0000 O   0  0
   10.7121   -5.6472    0.0000 O   0  0
    8.5763   -9.3692    0.0000 C   0  0
    5.7161   -5.2642    0.0000 C   0  0
    5.7202   -6.9129    0.0000 C   0  0
   10.0085  -10.1894    0.0000 C   0  0
    9.2840   -5.6556    0.0000 C   0  0
    9.9960   -5.2392    0.0000 C   0  0
    8.5763  -10.1935    0.0000 C   0  0
    5.0000   -6.5007    0.0000 C   0  0
    5.0042   -5.6722    0.0000 C   0  0
    9.2923  -10.6099    0.0000 C   0  0
  2  1  2  0
  3  1  1  0
  4  3  2  0
  5  2  1  0
  6  5  1  0
  7  8  1  0
  8  1  1  0
  9 11  1  0
 10  9  1  0
 11  7  2  0
 12  3  1  0
 13 10  1  0
 14 20  1  0
 15  9  2  0
 16  6  2  0
 17  5  2  0
 18 10  2  0
 19 12  1  0
 20 19  1  0
 21 15  1  0
 22 17  1  0
 23 16  1  0
 24 21  2  0
  6  4  1  0
 23 22  2  0
 24 18  1  0
M  END
> <COMPOUND_ID>
DNDI1417499

$$$$

  SciTegic04051205032D

 25 27  0  0  0  0            999 V2000
    7.2102   -6.4919    0.0000 N   0  0
    7.6983   -5.8250    0.0000 C   0  0
    7.2102   -5.1617    0.0000 C   0  0
    6.4368   -6.2375    0.0000 C   0  0
    6.4368   -5.4125    0.0000 C   0  0
    7.4749   -7.2790    0.0000 C   0  0
    8.5232   -5.8147    0.0000 C   0  0
    8.9357   -6.5262    0.0000 C   0  0
    8.9220   -5.0998    0.0000 C   0  0
    6.9112   -7.8840    0.0000 C   0  0
   10.1731   -5.8113    0.0000 C   0  0
    9.7470   -5.0895    0.0000 C   0  0
    9.7607   -6.5228    0.0000 C   0  0
    6.6121   -9.2864    0.0000 N   0  0
    6.1137   -7.7121    0.0000 O   0  0
    5.7253   -6.6500    0.0000 C   0  0
   10.9947   -5.8044    0.0000 O   0  0
    5.7253   -5.0000    0.0000 C   0  0
    5.4950  -10.4998    0.0000 O   0  0
    7.1758   -8.6711    0.0000 C   0  0
    6.8630  -10.0735    0.0000 C   0  0
    6.2993  -10.6751    0.0000 C   0  0
   11.4106   -6.5159    0.0000 C   0  0
    5.0000   -6.2375    0.0000 C   0  0
    5.0000   -5.4125    0.0000 C   0  0
  2  1  1  0
  3  2  2  0
  4  1  1  0
  5  4  1  0
  6  1  1  0
  7  2  1  0
  8  7  2  0
  9  7  1  0
 10  6  1  0
 11 12  1  0
 12  9  2  0
 13  8  1  0
 14 20  1  0
 15 10  1  0
 16  4  2  0
 17 11  1  0
 18  5  2  0
 19 22  1  0
 20 10  1  0
 21 14  1  0
 22 21  1  0
 23 17  1  0
 24 16  1  0
 25 24  2  0
  5  3  1  0
 25 18  1  0
 13 11  2  0
M  END
> <COMPOUND_ID>
DNDI1417500

$$$$

  SciTegic04051205032D

 25 26  0  0  0  0            999 V2000
   12.4024   -5.7123    0.0000 C   0  0
   11.5644   -5.7123    0.0000 C   0  0
    6.2186   -6.4246    0.0000 C   0  0
   12.8110   -5.0000    0.0000 O   0  0
   12.8110   -6.4246    0.0000 N   0  0
   11.1559   -6.4246    0.0000 C   0  0
   11.1559   -5.0000    0.0000 C   0  0
    6.6236   -7.1648    0.0000 C   0  0
    6.6236   -5.7123    0.0000 C   0  0
    8.6838   -6.4246    0.0000 O   0  0
    7.8458   -6.4246    0.0000 C   0  0
   14.8745   -7.1648    0.0000 N   0  0
    9.9373   -5.7123    0.0000 C   0  0
    5.4051   -6.4001    0.0000 C   0  0
    9.0923   -5.7123    0.0000 C   0  0
    7.4407   -5.7123    0.0000 C   0  0
    7.4407   -7.1648    0.0000 C   0  0
   10.3423   -6.4246    0.0000 C   0  0
   10.3423   -5.0000    0.0000 C   0  0
   13.6280   -6.4246    0.0000 C   0  0
   14.0330   -7.1648    0.0000 C   0  0
   15.2831   -6.4246    0.0000 C   0  0
   15.2831   -7.8771    0.0000 C   0  0
    5.0000   -7.0880    0.0000 C   0  0
    5.0140   -5.6844    0.0000 C   0  0
  2  1  1  0
  3  8  2  0
  4  1  2  0
  5  1  1  0
  6  2  2  0
  7  2  1  0
  8 17  1  0
  9 16  2  0
 10 15  1  0
 11 10  1  0
 12 21  1  0
 13 18  2  0
 14  3  1  0
 15 13  1  0
 16 11  1  0
 17 11  2  0
 18  6  1  0
 19  7  2  0
 20  5  1  0
 21 20  1  0
 22 12  1  0
 23 12  1  0
 24 14  1  0
 25 14  1  0
 13 19  1  0
  3  9  1  0
M  END
> <COMPOUND_ID>
DNDI1417501

$$$$

  SciTegic04051205032D

 24 26  0  0  0  0            999 V2000
    7.8738   -9.5090    0.0000 N   0  0
    7.8780  -10.3432    0.0000 C   0  0
    7.1523   -9.1086    0.0000 C   0  0
    7.1731  -10.7603    0.0000 N   0  0
    6.4515   -9.5215    0.0000 C   0  0
    6.4515  -10.3557    0.0000 C   0  0
    8.5788  -10.7561    0.0000 C   0  0
    7.1523   -8.2827    0.0000 N   0  0
    9.2920  -10.3349    0.0000 C   0  0
    8.5788  -11.5737    0.0000 C   0  0
   10.0261  -11.5612    0.0000 C   0  0
    5.7007   -5.8176    0.0000 N   0  0
   10.0136  -10.7436    0.0000 C   0  0
    9.2920  -11.9866    0.0000 C   0  0
   10.7310  -11.9741    0.0000 Cl  0  0
    5.7258   -9.1211    0.0000 C   0  0
    6.4265   -7.0439    0.0000 C   0  0
    5.7258  -10.7603    0.0000 C   0  0
    7.1523   -7.4568    0.0000 C   0  0
    6.4265   -6.2180    0.0000 C   0  0
    5.0000   -6.2514    0.0000 C   0  0
    5.6882   -5.0000    0.0000 C   0  0
    5.0208   -9.5215    0.0000 C   0  0
    5.0208  -10.3557    0.0000 C   0  0
  2  1  1  0
  3  1  2  0
  4  2  2  0
  5  3  1  0
  6  5  1  0
  7  2  1  0
  8  3  1  0
  9  7  1  0
 10  7  2  0
 11 14  2  0
 12 20  1  0
 13  9  2  0
 14 10  1  0
 15 11  1  0
 16  5  2  0
 17 19  1  0
 18  6  2  0
 19  8  1  0
 20 17  1  0
 21 12  1  0
 22 12  1  0
 23 16  1  0
 24 23  2  0
  4  6  1  0
 11 13  1  0
 18 24  1  0
M  END
> <COMPOUND_ID>
DNDI1417502

$$$$

  SciTegic04051205032D

 24 27  0  0  0  0            999 V2000
    7.1479   -7.3301    0.0000 N   0  0
    7.8593   -7.7425    0.0000 C   0  0
    7.1479   -8.9798    0.0000 N   0  0
    7.8593   -8.5673    0.0000 C   0  0
    6.4331   -7.7425    0.0000 C   0  0
    6.4331   -8.5673    0.0000 C   0  0
    8.5810   -7.3198    0.0000 N   0  0
    9.2821   -9.3990    0.0000 N   0  0
    7.8593   -9.3990    0.0000 C   0  0
    8.5707   -8.1549    0.0000 C   0  0
    9.3027   -7.7288    0.0000 C   0  0
   10.0073   -6.4812    0.0000 C   0  0
   10.7187   -6.0688    0.0000 C   0  0
   10.0141   -7.3061    0.0000 C   0  0
   10.7187   -5.2475    0.0000 Cl  0  0
    8.5707   -9.8011    0.0000 C   0  0
    9.2821   -8.5673    0.0000 C   0  0
    5.7217   -7.3301    0.0000 C   0  0
    5.7217   -8.9798    0.0000 C   0  0
   11.4438   -7.3061    0.0000 C   0  0
   11.4300   -6.4812    0.0000 C   0  0
   10.7255   -7.7185    0.0000 C   0  0
    5.0000   -7.7494    0.0000 C   0  0
    5.0000   -8.5673    0.0000 C   0  0
  2  1  2  0
  3  6  1  0
  4  2  1  0
  5  1  1  0
  6  5  1  0
  7  2  1  0
  8 17  1  0
  9  4  1  0
 10  4  1  0
 11  7  1  0
 12 14  1  0
 13 12  2  0
 14 11  1  0
 15 13  1  0
 16  9  1  0
 17 10  1  0
 18  5  2  0
 19  6  2  0
 20 22  1  0
 21 20  2  0
 22 14  2  0
 23 18  1  0
 24 23  2  0
  3  4  1  0
 24 19  1  0
  8 16  1  0
 21 13  1  0
M  END
> <COMPOUND_ID>
DNDI1417503

$$$$

  SciTegic04051205032D

 24 26  0  0  0  0            999 V2000
    7.8362   -7.4782    0.0000 C   0  0
    7.8362   -8.3193    0.0000 N   0  0
    7.1383   -7.0689    0.0000 N   0  0
    8.5676   -7.0600    0.0000 C   0  0
    9.9745   -8.7196    0.0000 C   0  0
    9.2386   -8.3193    0.0000 C   0  0
    8.5452   -8.7196    0.0000 C   0  0
    9.9745   -9.5674    0.0000 C   0  0
    8.5676   -6.2391    0.0000 C   0  0
    9.2386   -9.9677    0.0000 C   0  0
   10.6813   -8.2835    0.0000 Cl  0  0
    8.5452   -9.5383    0.0000 C   0  0
    6.4248   -7.4782    0.0000 C   0  0
    9.2588   -5.8141    0.0000 C   0  0
    9.2588   -7.4782    0.0000 C   0  0
    9.9902   -7.0689    0.0000 C   0  0
   10.6813   -9.9991    0.0000 C   0  0
    9.9902   -6.2391    0.0000 C   0  0
    9.2588   -5.0000    0.0000 C   0  0
    5.7090   -7.0600    0.0000 C   0  0
    6.4069   -8.3036    0.0000 C   0  0
    5.0000   -7.4604    0.0000 C   0  0
    5.7090   -8.7085    0.0000 C   0  0
    5.0000   -8.3036    0.0000 C   0  0
  2  1  2  0
  3  1  1  0
  4  1  1  0
  5  6  2  0
  6  7  1  0
  7  2  1  0
  8 10  2  0
  9  4  1  0
 10 12  1  0
 11  5  1  0
 12  7  2  0
 13  3  1  0
 14  9  2  0
 15  4  2  0
 16 15  1  0
 17  8  1  0
 18 16  2  0
 19 14  1  0
 20 13  1  0
 21 13  1  0
 22 20  1  0
 23 21  1  0
 24 22  1  0
 18 14  1  0
 24 23  1  0
  8  5  1  0
M  END
> <COMPOUND_ID>
DNDI1417504

$$$$

  SciTegic04051205032D

 25 27  0  0  0  0            999 V2000
    9.1790   -6.4978    0.0000 C   0  0
   12.0134   -6.4978    0.0000 C   0  0
    8.4713   -6.0843    0.0000 C   0  0
   12.0134   -7.3321    0.0000 C   0  0
    7.7525   -6.4978    0.0000 N   0  0
   10.5981   -6.4978    0.0000 N   0  0
   12.7248   -6.0843    0.0000 C   0  0
    9.8904   -6.0843    0.0000 N   0  0
    9.1790   -7.3321    0.0000 O   0  0
   11.3057   -6.0843    0.0000 C   0  0
    8.4713   -5.2475    0.0000 O   0  0
   12.7248   -7.7232    0.0000 C   0  0
    6.2179   -7.3172    0.0000 O   0  0
   13.4325   -6.4978    0.0000 C   0  0
   13.4325   -7.3321    0.0000 C   0  0
    7.0286   -6.0843    0.0000 C   0  0
    6.3210   -6.4903    0.0000 C   0  0
   12.6838   -5.2662    0.0000 O   0  0
   11.2909   -7.7380    0.0000 C   0  0
    5.3948   -7.4699    0.0000 C   0  0
   12.7322   -8.5463    0.0000 C   0  0
    5.5761   -6.1589    0.0000 C   0  0
   11.3057   -8.5798    0.0000 C   0  0
    5.0000   -6.7287    0.0000 C   0  0
   12.0283   -8.9709    0.0000 C   0  0
  2 10  1  0
  3  1  1  0
  4  2  1  0
  5  3  1  0
  6  8  1  0
  7  2  2  0
  8  1  1  0
  9  1  2  0
 10  6  2  0
 11  3  2  0
 12  4  2  0
 13 17  1  0
 14  7  1  0
 15 14  2  0
 16  5  1  0
 17 16  1  0
 18  7  1  0
 19  4  1  0
 20 13  1  0
 21 12  1  0
 22 17  1  0
 23 19  2  0
 24 22  1  0
 25 23  1  0
 20 24  1  0
 15 12  1  0
 21 25  2  0
M  END
> <COMPOUND_ID>
DNDI1417505

$$$$

  SciTegic04051205032D

 24 26  0  0  0  0            999 V2000
    8.5242   -8.4589    0.0000 C   0  0
    9.1931   -7.9735    0.0000 O   0  0
    7.7002   -8.2753    0.0000 S   0  0
    7.4391   -7.4799    0.0000 C   0  0
    9.8417   -8.4630    0.0000 C   0  0
   11.7587   -6.3338    0.0000 C   0  0
    6.6275   -7.3168    0.0000 C   0  0
    8.7771   -9.2298    0.0000 C   0  0
   10.8043   -7.3903    0.0000 N   0  0
    9.5888   -9.2298    0.0000 C   0  0
   10.6329   -8.2101    0.0000 C   0  0
    6.0686   -7.9123    0.0000 N   0  0
   11.5834   -7.1414    0.0000 N   0  0
   11.1469   -5.7954    0.0000 O   0  0
    6.3705   -6.5377    0.0000 C   0  0
   12.5379   -6.0809    0.0000 C   0  0
    8.0103   -6.8641    0.0000 C   0  0
   12.7132   -5.2937    0.0000 O   0  0
    7.7614   -6.0932    0.0000 C   0  0
    5.2487   -7.7369    0.0000 C   0  0
    6.9374   -5.9177    0.0000 C   0  0
    5.5669   -6.3542    0.0000 C   0  0
   13.5046   -5.0000    0.0000 C   0  0
    5.0000   -6.9782    0.0000 C   0  0
  2  1  1  0
  3  1  1  0
  4  3  1  0
  5  2  1  0
  6 13  1  0
  7  4  1  0
  8  1  2  0
  9 11  2  0
 10  8  1  0
 11  5  1  0
 12  7  1  0
 13  9  1  0
 14  6  2  0
 15  7  2  0
 16  6  1  0
 17  4  2  0
 18 16  1  0
 19 17  1  0
 20 12  2  0
 21 19  2  0
 22 15  1  0
 23 18  1  0
 24 20  1  0
 10  5  2  0
 21 15  1  0
 24 22  2  0
M  END
> <COMPOUND_ID>
DNDI1417506

$$$$

  SciTegic04051205032D

 24 27  0  0  0  0            999 V2000
    9.8282   -6.4581    0.0000 C   0  0
    8.5558   -6.0455    0.0000 C   0  0
    8.5558   -6.8708    0.0000 C   0  0
    9.3433   -7.1184    0.0000 S   0  0
    9.3433   -5.7979    0.0000 C   0  0
    7.8474   -7.2938    0.0000 N   0  0
   10.6536   -6.4444    0.0000 C   0  0
    7.1356   -6.0455    0.0000 C   0  0
    7.8474   -5.6362    0.0000 C   0  0
    7.1321   -6.8708    0.0000 C   0  0
    5.7084   -6.0352    0.0000 N   0  0
    6.4202   -5.6362    0.0000 C   0  0
   11.0765   -7.1562    0.0000 C   0  0
    6.4134   -7.2800    0.0000 C   0  0
   11.0628   -5.7360    0.0000 O   0  0
    9.5909   -5.0000    0.0000 N   0  0
    5.7015   -6.8639    0.0000 C   0  0
   10.6639   -7.8784    0.0000 C   0  0
   11.8984   -7.1459    0.0000 C   0  0
   11.9122   -8.5902    0.0000 C   0  0
   12.3249   -7.8543    0.0000 C   0  0
   11.0902   -8.5902    0.0000 C   0  0
   12.3352   -9.2883    0.0000 F   0  0
    5.0000   -5.6225    0.0000 C   0  0
  2  5  1  0
  3  4  1  0
  4  1  1  0
  5  1  2  0
  6  3  2  0
  7  1  1  0
  8  9  1  0
  9  2  2  0
 10  6  1  0
 11 12  1  0
 12  8  1  0
 13  7  1  0
 14 10  1  0
 15  7  2  0
 16  5  1  0
 17 14  1  0
 18 13  2  0
 19 13  1  0
 20 21  1  0
 21 19  2  0
 22 18  1  0
 23 20  1  0
 24 11  1  0
  3  2  1  0
 20 22  2  0
 10  8  2  0
 17 11  1  0
M  END
> <COMPOUND_ID>
DNDI1417507

$$$$

  SciTegic04051205032D

 25 26  0  0  0  0            999 V2000
    6.5711   -7.0696    0.0000 C   0  0
    6.5711   -6.2307    0.0000 C   0  0
    5.1650   -6.2307    0.0000 N   0  0
    8.0013   -9.5517    0.0000 C   0  0
    5.8629   -7.4683    0.0000 C   0  0
    7.3034   -8.3175    0.0000 N   0  0
    5.8629   -5.8319    0.0000 C   0  0
    8.7164   -9.9712    0.0000 C   0  0
    5.1650   -7.0696    0.0000 C   0  0
   10.8582  -11.2192    0.0000 C   0  0
   10.1224  -10.7860    0.0000 C   0  0
    7.3034   -7.4787    0.0000 C   0  0
    8.0013   -8.7369    0.0000 N   0  0
    7.3034   -9.9712    0.0000 O   0  0
    9.4246   -9.5517    0.0000 C   0  0
    8.7164  -10.7860    0.0000 C   0  0
   10.1224   -9.9712    0.0000 C   0  0
    9.4246  -11.1985    0.0000 C   0  0
    7.3034   -5.8010    0.0000 O   0  0
    5.8629   -8.3038    0.0000 C   0  0
    6.5711   -8.6991    0.0000 O   0  0
   11.5767  -11.6351    0.0000 C   0  0
   10.4319  -11.9445    0.0000 C   0  0
   11.2914  -10.5006    0.0000 C   0  0
    5.8629   -5.0000    0.0000 C   0  0
  2  1  2  0
  3  9  1  0
  4 13  1  0
  5  1  1  0
  6 12  2  0
  7  2  1  0
  8  4  1  0
  9  5  2  0
 10 11  1  0
 11 18  2  0
 12  1  1  0
 13  6  1  0
 14  4  2  0
 15  8  1  0
 16  8  2  0
 17 15  2  0
 18 16  1  0
 19  2  1  0
 20  5  1  0
 21 20  1  0
 22 10  1  0
 23 10  1  0
 24 10  1  0
 25  7  1  0
  7  3  2  0
 17 11  1  0
M  END
> <COMPOUND_ID>
DNDI1417508

$$$$

  SciTegic04051205032D

 23 25  0  0  0  0            999 V2000
    7.9735   -6.5514    0.0000 N   0  0
    8.7874   -6.2929    0.0000 C   0  0
    7.4851   -5.9050    0.0000 C   0  0
    9.4961   -6.7477    0.0000 N   0  0
    8.7492   -5.4884    0.0000 S   0  0
    7.9591   -5.2394    0.0000 C   0  0
   10.2431   -6.3503    0.0000 C   0  0
    6.6519   -5.8332    0.0000 C   0  0
    6.1779   -6.4940    0.0000 N   0  0
   10.9326   -6.8052    0.0000 C   0  0
   10.2718   -5.5459    0.0000 O   0  0
   12.3691   -6.8387    0.0000 S   0  0
   11.6508   -6.4029    0.0000 C   0  0
   13.0873   -6.4365    0.0000 C   0  0
    5.3399   -6.4029    0.0000 C   0  0
    6.3311   -5.0670    0.0000 C   0  0
   13.1304   -5.6416    0.0000 C   0  0
   13.8055   -6.8818    0.0000 C   0  0
    5.0000   -5.6895    0.0000 C   0  0
    5.4884   -5.0000    0.0000 C   0  0
   13.8582   -5.2730    0.0000 C   0  0
   14.5237   -6.4940    0.0000 C   0  0
   14.5668   -5.6895    0.0000 C   0  0
  2  1  2  0
  3  1  1  0
  4  2  1  0
  5  2  1  0
  6  3  2  0
  7  4  1  0
  8  3  1  0
  9  8  2  0
 10  7  1  0
 11  7  2  0
 12 13  1  0
 13 10  1  0
 14 12  1  0
 15  9  1  0
 16  8  1  0
 17 14  1  0
 18 14  2  0
 19 20  1  0
 20 16  2  0
 21 17  2  0
 22 18  1  0
 23 22  2  0
  5  6  1  0
 19 15  2  0
 21 23  1  0
M  END
> <COMPOUND_ID>
DNDI1417509

$$$$

  SciTegic04051205032D

 23 24  0  0  0  0            999 V2000
    7.0700   -6.3602    0.0000 N   0  0
    6.4006   -5.8957    0.0000 C   0  0
   10.6121   -8.4158    0.0000 C   0  0
    5.7360   -6.3887    0.0000 C   0  0
    8.5802   -6.3482    0.0000 C   0  0
    6.8604   -7.1343    0.0000 O   0  0
    7.8180   -5.9790    0.0000 C   0  0
    9.7617   -8.2086    0.0000 N   0  0
   11.2552   -7.8608    0.0000 N   0  0
    6.0314   -7.1700    0.0000 C   0  0
    9.1781   -5.8075    0.0000 C   0  0
    8.7612   -7.1438    0.0000 C   0  0
    9.5759   -7.3987    0.0000 C   0  0
   10.8026   -9.2043    0.0000 O   0  0
    6.4006   -5.0810    0.0000 O   0  0
    9.9737   -6.0505    0.0000 C   0  0
   10.1571   -6.8532    0.0000 C   0  0
    8.9971   -5.0000    0.0000 Cl  0  0
   12.0150   -8.1443    0.0000 O   0  0
    5.3240   -5.6670    0.0000 C   0  0
    5.0000   -6.7246    0.0000 C   0  0
   11.1409   -7.0628    0.0000 C   0  0
   12.0056   -8.9542    0.0000 C   0  0
  2  1  1  0
  3  8  1  0
  4  2  1  0
  5  7  1  0
  6  1  1  0
  7  1  1  0
  8 13  1  0
  9  3  1  0
 10  6  1  0
 11  5  1  0
 12  5  2  0
 13 12  1  0
 14  3  2  0
 15  2  2  0
 16 11  2  0
 17 16  1  0
 18 11  1  0
 19  9  1  0
 20  4  1  0
 21  4  1  0
 22  9  1  0
 23 19  1  0
 10  4  1  0
 17 13  2  0
M  END
> <COMPOUND_ID>
DNDI1417510

$$$$

  SciTegic04051205032D

 24 25  0  0  0  0            999 V2000
    7.8873   -8.7409    0.0000 C   0  0
    7.8915   -9.5777    0.0000 C   0  0
    8.5819   -8.3224    0.0000 C   0  0
    8.5945   -9.9837    0.0000 N   0  0
    7.1843   -9.9837    0.0000 C   0  0
    8.5819   -7.4939    0.0000 N   0  0
    9.2933   -8.7367    0.0000 C   0  0
    7.1592   -8.3224    0.0000 C   0  0
    9.2975   -9.5652    0.0000 C   0  0
    6.4855   -9.5694    0.0000 C   0  0
    6.4353   -6.2428    0.0000 C   0  0
    5.7198   -5.8285    0.0000 N   0  0
    6.4479   -8.7367    0.0000 C   0  0
    7.8664   -7.0713    0.0000 C   0  0
    6.4353   -7.0713    0.0000 C   0  0
    7.1509   -5.8368    0.0000 C   0  0
    7.1509   -7.4855    0.0000 C   0  0
    7.8664   -6.2511    0.0000 C   0  0
   10.3771   -8.8245    0.0000 Cl  0  0
    7.1760  -10.8122    0.0000 C   0  0
    5.0000   -6.2428    0.0000 C   0  0
    5.7198   -5.0000    0.0000 C   0  0
   10.0005   -9.9795    0.0000 C   0  0
    5.7198   -8.3392    0.0000 C   0  0
  2  1  1  0
  3  1  1  0
  4  2  1  0
  5  2  2  0
  6  3  1  0
  7  3  2  0
  8  1  2  0
  9  7  1  0
 10 13  2  0
 11 16  2  0
 12 11  1  0
 13  8  1  0
 14  6  1  0
 15 17  2  0
 16 18  1  0
 17 14  1  0
 18 14  2  0
 20  5  1  0
 21 12  1  0
 22 12  1  0
 23  9  1  0
 24 13  1  0
  5 10  1  0
  4  9  2  0
 15 11  1  0
M  END
> <COMPOUND_ID>
DNDI1417511

$$$$

  SciTegic04051205032D

 26 29  0  0  0  0            999 V2000
   11.9904   -7.8618    0.0000 N   0  0
   10.6831   -8.1808    0.0000 C   0  0
   11.2402   -7.6462    0.0000 C   0  0
   12.1702   -8.6166    0.0000 C   0  0
   11.6041   -9.1512    0.0000 C   0  0
    6.3882   -7.2284    0.0000 C   0  0
   11.0605   -6.8914    0.0000 C   0  0
    8.2751   -7.6462    0.0000 N   0  0
    9.9329   -7.9562    0.0000 C   0  0
    6.0917   -6.4871    0.0000 C   0  0
    7.3316   -7.2419    0.0000 N   0  0
    5.2965   -6.3658    0.0000 N   0  0
    5.8895   -7.8573    0.0000 O   0  0
    8.9759   -6.9723    0.0000 C   0  0
    9.7531   -7.2014    0.0000 C   0  0
   12.5475   -7.3227    0.0000 C   0  0
   10.3102   -6.6713    0.0000 C   0  0
   12.9114   -8.8322    0.0000 C   0  0
   11.7882   -9.9105    0.0000 C   0  0
    5.0000   -5.6245    0.0000 C   0  0
    6.5858   -5.8537    0.0000 C   0  0
   13.2888   -7.5473    0.0000 C   0  0
   13.0956   -9.5870    0.0000 C   0  0
   12.5341  -10.1261    0.0000 C   0  0
    5.4987   -5.0000    0.0000 C   0  0
    6.2893   -5.1079    0.0000 C   0  0
  2  3  2  0
  3  1  1  0
  4  1  1  0
  5  4  2  0
  6 11  1  0
  7  3  1  0
  8 14  2  0
  9  2  1  0
 10  6  1  0
 11  8  1  0
 12 10  1  0
 13  6  2  0
 14 15  1  0
 15 17  1  0
 16  1  1  0
 17  7  2  0
 18  4  1  0
 19  5  1  0
 20 12  2  0
 21 10  2  0
 22 16  1  0
 23 18  2  0
 24 23  1  0
 25 26  2  0
 26 21  1  0
  2  5  1  0
 24 19  2  0
  9 15  2  0
 20 25  1  0
M  END
> <COMPOUND_ID>
DNDI1417512

$$$$

  SciTegic04051205032D

 24 26  0  0  0  0            999 V2000
    6.8254   -6.3618    0.0000 C   0  0
    5.4029   -6.7017    0.0000 N   0  0
    6.0129   -6.1255    0.0000 C   0  0
   10.5506   -7.1969    0.0000 S   0  0
    7.4512   -5.8216    0.0000 C   0  0
    5.5987   -7.5210    0.0000 C   0  0
    7.0077   -7.1811    0.0000 C   0  0
    6.3775   -7.7573    0.0000 N   0  0
    8.2210   -6.1052    0.0000 C   0  0
    8.9480   -5.8216    0.0000 C   0  0
   10.2017   -6.4608    0.0000 C   0  0
    9.4184   -6.4946    0.0000 C   0  0
    8.3515   -6.9155    0.0000 C   0  0
    9.7740   -7.4985    0.0000 O   0  0
   11.3249   -6.8930    0.0000 O   0  0
    7.7460   -7.4220    0.0000 C   0  0
    5.8193   -5.3129    0.0000 N   0  0
    5.0000   -8.1017    0.0000 N   0  0
   10.8094   -7.9757    0.0000 C   0  0
    7.3071   -5.0000    0.0000 C   0  0
    9.3081   -5.0586    0.0000 C   0  0
   10.6001   -5.7045    0.0000 C   0  0
   10.1364   -5.0000    0.0000 C   0  0
   11.6287   -8.0094    0.0000 C   0  0
  2  3  2  0
  3  1  1  0
  4 11  1  0
  5  1  1  0
  6  2  1  0
  7  1  2  0
  8  7  1  0
  9  5  2  0
 10  9  1  0
 11 12  2  0
 12 10  1  0
 13  9  1  0
 14  4  2  0
 15  4  2  0
 16  7  1  0
 17  3  1  0
 18  6  1  0
 19  4  1  0
 20  5  1  0
 21 10  2  0
 22 23  2  0
 23 21  1  0
 24 19  1  0
 13 16  2  0
  6  8  2  0
 22 11  1  0
M  END
> <COMPOUND_ID>
DNDI1417513

$$$$

  SciTegic04051205032D

 23 25  0  0  0  0            999 V2000
    7.1110   -9.1908    0.0000 N   0  0
    6.2818   -9.1908    0.0000 C   0  0
    7.5187   -8.4652    0.0000 C   0  0
    5.7946   -9.8576    0.0000 N   0  0
   11.2154   -7.7535    0.0000 C   0  0
   10.7974   -7.0280    0.0000 C   0  0
    5.7842   -8.5205    0.0000 S   0  0
   11.2051   -6.3128    0.0000 C   0  0
   12.0343   -6.2230    0.0000 S   0  0
    8.3444   -8.4652    0.0000 C   0  0
   10.7974   -8.4549    0.0000 N   0  0
    5.0104   -9.6088    0.0000 C   0  0
    7.0971   -7.7639    0.0000 O   0  0
    5.0000   -8.7831    0.0000 C   0  0
   12.2036   -5.4076    0.0000 C   0  0
   10.8665   -5.5562    0.0000 C   0  0
   12.0343   -7.7397    0.0000 O   0  0
   11.4780   -5.0000    0.0000 C   0  0
    8.7486   -7.7639    0.0000 C   0  0
    8.7555   -9.1804    0.0000 C   0  0
    9.9717   -8.4549    0.0000 C   0  0
    9.5743   -9.1804    0.0000 C   0  0
    9.5639   -7.7535    0.0000 C   0  0
  2  1  1  0
  3  1  1  0
  4  2  2  0
  5 11  1  0
  6  5  1  0
  7  2  1  0
  8  6  1  0
  9  8  1  0
 10  3  1  0
 11 21  1  0
 12  4  1  0
 13  3  2  0
 14  7  1  0
 15  9  1  0
 16  8  2  0
 17  5  2  0
 18 16  1  0
 19 10  2  0
 20 10  1  0
 21 22  1  0
 22 20  2  0
 23 19  1  0
 14 12  2  0
 21 23  2  0
 15 18  2  0
M  END
> <COMPOUND_ID>
DNDI1417514

$$$$

  SciTegic04051205032D

 24 26  0  0  0  0            999 V2000
    7.8798   -8.5988    0.0000 S   0  0
    8.7051  -10.0234    0.0000 C   0  0
    8.7051   -8.5988    0.0000 C   0  0
    9.1126   -9.3043    0.0000 C   0  0
    7.8867  -10.0302    0.0000 C   0  0
    7.4724   -9.3043    0.0000 C   0  0
    9.1126   -7.8832    0.0000 C   0  0
    9.1126  -10.7561    0.0000 O   0  0
    8.7051   -7.1470    0.0000 O   0  0
    6.2327   -5.7190    0.0000 N   0  0
    7.4655   -6.4244    0.0000 C   0  0
    7.8730   -7.1332    0.0000 C   0  0
    9.9379   -9.3043    0.0000 C   0  0
    6.6403   -6.4244    0.0000 C   0  0
    7.4724  -10.7493    0.0000 C   0  0
    7.8730   -5.7190    0.0000 O   0  0
    6.6403   -9.3043    0.0000 C   0  0
   10.3453   -8.5988    0.0000 C   0  0
    5.4075   -5.7190    0.0000 C   0  0
    9.9276   -7.8729    0.0000 C   0  0
    5.0000   -6.4244    0.0000 C   0  0
    5.0000   -5.0000    0.0000 C   0  0
    6.6506  -10.7493    0.0000 C   0  0
    6.2327  -10.0131    0.0000 C   0  0
  2  5  1  0
  3  1  1  0
  4  3  2  0
  5  6  2  0
  6  1  1  0
  7  3  1  0
  8  2  2  0
  9  7  1  0
 10 14  1  0
 11 12  1  0
 12  9  1  0
 13  4  1  0
 14 11  1  0
 15  5  1  0
 16 11  1  0
 17  6  1  0
 18 20  1  0
 19 10  1  0
 20  7  2  0
 21 19  1  0
 22 19  1  0
 23 15  2  0
 24 17  2  0
  2  4  1  0
 23 24  1  0
 18 13  2  0
M  END
> <COMPOUND_ID>
DNDI1417515

$$$$

  SciTegic04051205032D

 25 28  0  0  0  0            999 V2000
    7.8360   -6.6705    0.0000 N   0  0
    6.9489   -7.6482    0.0000 N   0  0
    8.2698   -7.3698    0.0000 C   0  0
    7.0266   -6.8421    0.0000 C   0  0
    7.6967   -7.9914    0.0000 S   0  0
    9.0953   -7.3698    0.0000 N   0  0
    6.2205   -8.0691    0.0000 C   0  0
    6.4050   -6.3209    0.0000 C   0  0
    9.5129   -8.0852    0.0000 C   0  0
    6.2205   -8.8914    0.0000 C   0  0
    5.6280   -6.6220    0.0000 C   0  0
    6.5313   -5.5115    0.0000 C   0  0
    9.1083   -8.7975    0.0000 C   0  0
   10.3385   -8.0852    0.0000 C   0  0
    5.5050   -9.3025    0.0000 C   0  0
    6.9198   -9.3187    0.0000 C   0  0
    5.0000   -6.1040    0.0000 C   0  0
    5.8935   -5.0000    0.0000 C   0  0
    9.5129   -9.5227    0.0000 C   0  0
   10.7658   -8.7845    0.0000 C   0  0
    5.4856  -10.1281    0.0000 C   0  0
    6.9198  -10.1442    0.0000 C   0  0
    5.1230   -5.2914    0.0000 C   0  0
    6.2205  -10.5457    0.0000 C   0  0
   10.3514   -9.5065    0.0000 C   0  0
  2  4  1  0
  3  1  1  0
  4  1  2  0
  5  3  1  0
  6  3  2  0
  7  2  1  0
  8  4  1  0
  9  6  1  0
 10  7  1  0
 11  8  2  0
 12  8  1  0
 13  9  1  0
 14  9  2  0
 15 10  1  0
 16 10  2  0
 17 11  1  0
 18 12  2  0
 19 13  2  0
 20 14  1  0
 21 15  2  0
 22 16  1  0
 23 18  1  0
 24 22  2  0
 25 20  2  0
  2  5  1  0
 23 17  2  0
 25 19  1  0
 24 21  1  0
M  END
> <COMPOUND_ID>
DNDI1417516

$$$$

  SciTegic04051205032D

 26 28  0  0  0  0            999 V2000
    7.0982   -6.9030    0.0000 N   0  3
    7.7894   -6.5004    0.0000 C   0  0
    7.7894   -5.7034    0.0000 C   0  0
    6.4028   -6.5004    0.0000 C   0  0
    6.4028   -5.7034    0.0000 C   0  0
    8.4888   -6.9030    0.0000 C   0  0
   12.6688   -6.8745    0.0000 N   0  0
   11.9654   -6.4760    0.0000 C   0  0
    9.1963   -6.4963    0.0000 C   0  0
   11.2701   -6.8867    0.0000 C   0  0
   10.5707   -6.4841    0.0000 C   0  0
    9.8794   -6.8908    0.0000 C   0  0
    7.0982   -7.7162    0.0000 C   0  0
   13.3642   -6.4638    0.0000 C   0  0
    7.3909   -5.0000    0.0000 C   0  0
    8.5701   -5.4880    0.0000 C   0  0
    5.7034   -6.9030    0.0000 C   0  0
    5.7034   -5.3050    0.0000 C   0  0
   12.6810   -7.6715    0.0000 C   0  0
   14.0636   -6.8664    0.0000 C   0  0
   13.3520   -5.6668    0.0000 C   0  0
    5.0000   -5.7034    0.0000 C   0  0
    5.0000   -6.5004    0.0000 C   0  0
   14.7589   -6.4516    0.0000 C   0  0
   14.0473   -5.2643    0.0000 C   0  0
   14.7467   -5.6546    0.0000 C   0  0
  2  1  2  0
  3  2  1  0
  4  1  1  0
  5  4  2  0
  6  2  1  0
  7  8  1  0
  8 10  2  0
  9  6  2  0
 10 11  1  0
 11 12  2  0
 12  9  1  0
 13  1  1  0
 14  7  1  0
 15  3  1  0
 16  3  1  0
 17  4  1  0
 18  5  1  0
 19  7  1  0
 20 14  2  0
 21 14  1  0
 22 23  1  0
 23 17  2  0
 24 20  1  0
 25 21  2  0
 26 25  1  0
  5  3  1  0
 18 22  2  0
 24 26  2  0
M  CHG  1   1   1
M  END
> <COMPOUND_ID>
DNDI1417517

$$$$

  SciTegic04051205032D

 24 26  0  0  0  0            999 V2000
    7.8704   -7.1194    0.0000 C   0  0
    7.0819   -6.8649    0.0000 N   0  0
    8.3543   -6.4519    0.0000 N   0  0
    7.0819   -6.0389    0.0000 C   0  0
    7.8704   -5.7885    0.0000 C   0  0
    8.1291   -7.9079    0.0000 S   0  0
    9.1846   -8.8591    0.0000 C   0  0
    6.4143   -7.3447    0.0000 C   0  0
    9.9940   -9.0343    0.0000 N   0  0
    8.6339   -9.4724    0.0000 O   0  0
    8.9343   -8.0831    0.0000 C   0  0
    6.4143   -5.5548    0.0000 C   0  0
    8.1291   -5.0000    0.0000 C   0  0
   10.2485   -9.8188    0.0000 C   0  0
    6.5062   -8.1666    0.0000 C   0  0
    5.6676   -7.0067    0.0000 C   0  0
    9.6936  -10.4237    0.0000 C   0  0
   11.0495   -9.9856    0.0000 C   0  0
    5.0000   -7.4949    0.0000 C   0  0
    5.8428   -8.6463    0.0000 C   0  0
    9.9398  -11.2081    0.0000 C   0  0
   11.3082  -10.7741    0.0000 C   0  0
    5.0793   -8.3168    0.0000 C   0  0
   10.7492  -11.3874    0.0000 C   0  0
  2  1  1  0
  3  1  2  0
  4  2  1  0
  5  3  1  0
  6  1  1  0
  7 11  1  0
  8  2  1  0
  9  7  1  0
 10  7  2  0
 11  6  1  0
 12  4  1  0
 13  5  1  0
 14  9  1  0
 15  8  1  0
 16  8  2  0
 17 14  1  0
 18 14  1  0
 19 16  1  0
 20 15  2  0
 21 17  1  0
 22 18  1  0
 23 19  2  0
 24 22  1  0
  5  4  2  0
 23 20  1  0
 24 21  1  0
M  END
> <COMPOUND_ID>
DNDI1417518

$$$$

  SciTegic04051205032D

 19 20  0  0  0  0            999 V2000
    8.7014   -6.3681    0.0000 C   0  0
    8.7888   -7.1740    0.0000 C   0  0
    7.5082   -6.9116    0.0000 C   0  0
    8.0517   -7.5145    0.0000 S   0  0
    7.9173   -6.1963    0.0000 C   0  0
    6.6680   -6.9210    0.0000 C   0  0
    9.3323   -5.8153    0.0000 C   0  0
    7.4926   -5.4873    0.0000 C   0  0
    6.2494   -6.2120    0.0000 C   0  0
    9.5166   -7.5801    0.0000 N   0  0
    9.1574   -5.0000    0.0000 O   0  0
    6.6680   -5.4873    0.0000 C   0  0
    6.2494   -7.6363    0.0000 O   0  0
   10.1070   -6.0683    0.0000 O   0  0
    5.4154   -6.2244    0.0000 Br  0  0
    5.4248   -7.6363    0.0000 C   0  0
   10.7191   -5.5154    0.0000 C   0  0
    5.0000   -6.9335    0.0000 C   0  0
   11.5126   -5.7684    0.0000 C   0  0
  2  1  2  0
  3  5  2  0
  4  2  1  0
  5  1  1  0
  6  3  1  0
  7  1  1  0
  8  5  1  0
  9 12  1  0
 10  2  1  0
 11  7  2  0
 12  8  2  0
 13  6  1  0
 14  7  1  0
 15  9  1  0
 16 13  1  0
 17 14  1  0
 18 16  1  0
 19 17  1  0
  4  3  1  0
  9  6  2  0
M  END
> <COMPOUND_ID>
DNDI1417519

$$$$

  SciTegic04051205032D

 23 26  0  0  0  0            999 V2000
    6.8982   -7.4677    0.0000 N   0  3
    6.3173   -8.6446    0.0000 N   0  0
    6.1693   -7.8321    0.0000 C   0  0
    7.1184   -8.7699    0.0000 C   0  0
    7.4829   -8.0144    0.0000 C   0  0
    7.0462   -6.6287    0.0000 C   0  0
    7.8093   -6.3326    0.0000 C   0  0
    7.9574   -5.5126    0.0000 C   0  0
    8.7129   -5.2278    0.0000 C   0  0
    7.4259   -9.5330    0.0000 C   0  0
    8.4585   -6.8451    0.0000 C   0  0
    9.3507   -5.7365    0.0000 C   0  0
    5.5884   -9.0280    0.0000 C   0  0
    5.3645   -7.7221    0.0000 C   0  0
    7.2779   -5.0000    0.0000 Cl  0  0
    9.2330   -6.5565    0.0000 C   0  0
   10.1327   -5.4442    0.0000 Cl  0  0
    5.0000   -8.4244    0.0000 C   0  0
    6.9134  -10.1708    0.0000 C   0  0
    8.2346   -9.6469    0.0000 C   0  0
    8.5496  -10.4100    0.0000 C   0  0
    7.2285  -10.9566    0.0000 C   0  0
    8.0485  -11.0781    0.0000 C   0  0
  2  3  1  0
  3  1  2  0
  4  5  2  0
  5  1  1  0
  6  1  1  0
  7  6  1  0
  8  7  2  0
  9  8  1  0
 10  4  1  0
 11  7  1  0
 12 16  1  0
 13  2  1  0
 14  3  1  0
 15  8  1  0
 16 11  2  0
 17 12  1  0
 18 14  1  0
 19 10  1  0
 20 10  2  0
 21 20  1  0
 22 19  2  0
 23 21  2  0
  4  2  1  0
 18 13  1  0
 12  9  2  0
 22 23  1  0
M  CHG  1   1   1
M  END
> <COMPOUND_ID>
DNDI1417520

$$$$

  SciTegic04051205032D

 25 26  0  0  0  0            999 V2000
    8.5702   -6.9091    0.0000 C   0  0
    7.8562   -6.4971    0.0000 C   0  0
    9.9983   -6.9091    0.0000 N   0  0
   10.7123   -6.4971    0.0000 C   0  0
    7.1421   -6.9091    0.0000 C   0  0
    9.2843   -6.4971    0.0000 O   0  0
    6.4281   -6.4971    0.0000 C   0  0
   12.1404   -6.4971    0.0000 C   0  0
   11.4264   -6.9182    0.0000 C   0  0
    6.4281   -5.6686    0.0000 C   0  0
    8.5702   -7.7330    0.0000 O   0  0
    7.8562   -5.6686    0.0000 C   0  0
   12.8545   -6.9182    0.0000 C   0  0
    7.1421   -5.2475    0.0000 C   0  0
   10.7123   -5.6732    0.0000 N   0  0
    5.7140   -6.9091    0.0000 O   0  0
    5.7140   -5.2475    0.0000 O   0  0
   12.8545   -7.7421    0.0000 O   0  0
   12.1404   -5.6732    0.0000 C   0  0
   13.5685   -6.4971    0.0000 C   0  0
    5.7140   -7.7330    0.0000 C   0  0
   13.5548   -8.1449    0.0000 C   0  0
    5.0000   -5.6686    0.0000 C   0  0
   12.8545   -5.2704    0.0000 C   0  0
   13.5685   -5.6732    0.0000 C   0  0
  2  1  1  0
  3  6  1  0
  4  3  2  0
  5  2  1  0
  6  1  1  0
  7  5  2  0
  8  9  1  0
  9  4  1  0
 10 14  2  0
 11  1  2  0
 12  2  2  0
 13  8  2  0
 14 12  1  0
 15  4  1  0
 16  7  1  0
 17 10  1  0
 18 13  1  0
 19  8  1  0
 20 13  1  0
 21 16  1  0
 22 18  1  0
 23 17  1  0
 24 19  2  0
 25 24  1  0
 10  7  1  0
 25 20  2  0
M  END
> <COMPOUND_ID>
DNDI1417521

$$$$

  SciTegic04051205032D

 25 26  0  0  0  0            999 V2000
    5.8837   -7.3092    0.0000 C   0  0
    7.3115   -6.4934    0.0000 C   0  0
    8.0302   -6.0760    0.0000 C   0  0
    8.7394   -7.3092    0.0000 N   0  0
    5.8837   -6.4934    0.0000 C   0  0
    6.5992   -7.7172    0.0000 C   0  0
   10.1735   -7.3092    0.0000 C   0  0
    8.7394   -6.4934    0.0000 N   0  0
    6.5992   -6.0635    0.0000 C   0  0
    7.3115   -7.3092    0.0000 C   0  0
    9.4549   -7.7172    0.0000 C   0  0
   10.8890   -7.7172    0.0000 C   0  0
    8.0302   -5.2475    0.0000 O   0  0
    5.1650   -7.7172    0.0000 O   0  0
    6.5992   -8.5457    0.0000 O   0  0
    5.1650   -6.0760    0.0000 O   0  0
   10.8890   -8.5457    0.0000 O   0  0
   10.1735   -6.4934    0.0000 C   0  0
    9.4549   -8.5457    0.0000 C   0  0
   11.6014   -7.3092    0.0000 C   0  0
    5.1650   -8.5457    0.0000 C   0  0
    5.1650   -5.2475    0.0000 C   0  0
    5.8837   -8.9631    0.0000 C   0  0
   10.8890   -6.0760    0.0000 C   0  0
   11.6014   -6.4934    0.0000 C   0  0
  2  9  1  0
  3  2  1  0
  4  8  1  0
  5  1  1  0
  6  1  2  0
  7 11  1  0
  8  3  1  0
  9  5  2  0
 10  6  1  0
 11  4  2  0
 12  7  1  0
 13  3  2  0
 14  1  1  0
 15  6  1  0
 16  5  1  0
 17 12  1  0
 18  7  2  0
 19 11  1  0
 20 12  2  0
 21 14  1  0
 22 16  1  0
 23 15  1  0
 24 18  1  0
 25 24  2  0
  2 10  2  0
 25 20  1  0
M  END
> <COMPOUND_ID>
DNDI1417522

$$$$

  SciTegic04051205032D

 24 25  0  0  0  0            999 V2000
    7.1389   -8.3055    0.0000 C   0  0
    7.1389   -7.4783    0.0000 C   0  0
    6.4259   -8.7036    0.0000 N   0  0
    6.4259   -7.0617    0.0000 C   0  0
    7.8518   -7.0462    0.0000 C   0  0
    8.5617   -6.6296    0.0000 N   0  0
    7.8518   -8.7376    0.0000 S   0  0
   10.0154   -8.3518    0.0000 C   0  0
   10.7098   -8.7777    0.0000 C   0  0
   11.4351   -8.3796    0.0000 C   0  0
    9.2870   -8.7499    0.0000 C   0  0
    5.7191   -8.3055    0.0000 C   0  0
    5.7191   -7.4783    0.0000 C   0  0
   11.4505   -7.5648    0.0000 C   0  0
    8.5740   -8.3333    0.0000 C   0  0
   10.0277   -7.5370    0.0000 C   0  0
    9.2870   -9.5740    0.0000 O   0  0
   10.7561   -7.1357    0.0000 C   0  0
   12.1635   -8.7962    0.0000 O   0  0
   12.1913   -7.1820    0.0000 O   0  0
    6.4259   -6.2314    0.0000 C   0  0
    5.7191   -5.8333    0.0000 O   0  0
    5.0000   -8.7222    0.0000 C   0  0
    5.7191   -5.0000    0.0000 C   0  0
  2  1  2  0
  3  1  1  0
  4  2  1  0
  5  2  1  0
  6  5  3  0
  7  1  1  0
  8 11  1  0
  9  8  2  0
 10  9  1  0
 11 15  1  0
 12  3  2  0
 13 12  1  0
 14 18  1  0
 15  7  1  0
 16  8  1  0
 17 11  2  0
 18 16  2  0
 19 10  1  0
 20 14  1  0
 21  4  1  0
 22 21  1  0
 23 12  1  0
 24 22  1  0
 13  4  2  0
 14 10  2  0
M  END
> <COMPOUND_ID>
DNDI1417523

$$$$

  SciTegic04051205032D

 25 26  0  0  0  0            999 V2000
   11.4935   -7.3245    0.0000 N   0  0
   11.6607   -6.5241    0.0000 C   0  0
   12.1185   -7.8699    0.0000 C   0  0
   12.4447   -6.2417    0.0000 C   0  0
   12.9244   -7.6068    0.0000 N   0  0
    6.6227   -7.3107    0.0000 C   0  0
   13.0724   -6.7872    0.0000 C   0  0
    7.2258   -6.7516    0.0000 C   0  0
    6.8036   -8.0974    0.0000 O   0  0
   11.0604   -5.9868    0.0000 N   0  0
    8.0014   -7.0476    0.0000 C   0  0
    7.0860   -5.9292    0.0000 C   0  0
   11.9814   -8.6703    0.0000 N   0  0
   12.6091   -5.4276    0.0000 O   0  0
    5.8415   -7.1079    0.0000 O   0  0
    7.7383   -5.4085    0.0000 C   0  0
    8.6538   -6.5295    0.0000 C   0  0
    8.5250   -5.7128    0.0000 C   0  0
    5.7785   -6.3322    0.0000 C   0  0
   11.8882   -5.0000    0.0000 C   0  0
    9.1664   -5.1783    0.0000 C   0  0
    9.8736   -5.6168    0.0000 C   0  0
   11.2359   -5.5099    0.0000 C   0  0
   10.5287   -5.0933    0.0000 C   0  0
    5.0000   -6.1513    0.0000 C   0  0
  2  1  2  0
  3  1  1  0
  4  2  1  0
  5  3  2  0
  6  8  1  0
  7  5  1  0
  8 12  1  0
  9  6  2  0
 10  2  1  0
 11 17  1  0
 12 16  2  0
 13  3  1  0
 14  4  1  0
 15  6  1  0
 16 18  1  0
 17 18  2  0
 18 21  1  0
 19 15  1  0
 20 14  1  0
 21 22  1  0
 22 24  1  0
 23 20  1  0
 24 23  1  0
 25 19  1  0
  7  4  2  0
  8 11  2  0
M  END
> <COMPOUND_ID>
DNDI1417524

$$$$

  SciTegic04051205032D

 25 28  0  0  0  0            999 V2000
    9.4217   -7.2307    0.0000 C   0  0  2  0  0  0
    7.2901   -8.4755    0.0000 C   0  0  2  0  0  0
    8.0027   -8.0596    0.0000 C   0  0
    8.7251   -8.4755    0.0000 C   0  0
    9.4345   -8.0596    0.0000 C   0  0
    8.0027   -7.2307    0.0000 C   0  0
    7.3062   -9.3075    0.0000 C   0  0
    8.7122   -6.8147    0.0000 C   0  0
   10.2053   -6.9728    0.0000 C   0  0  1  0  0  0
    6.5935   -9.7267    0.0000 C   0  0
    8.7251   -9.3075    0.0000 C   0  0
    6.5806   -8.0596    0.0000 C   0  0
   10.2150   -8.3175    0.0000 C   0  0
   10.4472   -6.1892    0.0000 O   0  0
   11.2695   -6.0054    0.0000 C   0  0
    8.0157   -9.7267    0.0000 C   0  0
    5.8712   -9.3075    0.0000 C   0  0
    7.2901   -6.8147    0.0000 O   0  0
   10.6954   -7.6436    0.0000 C   0  0
   11.5371   -5.2475    0.0000 O   0  0
    5.1650   -9.7267    0.0000 O   0  0
    5.8615   -8.4755    0.0000 C   0  0
    9.3507   -6.4310    0.0000 C   0  0
    7.2675   -7.6564    0.0000 C   0  0
   11.7822   -6.6406    0.0000 C   0  0
  2  3  1  0
  3  6  1  0
  4  5  1  0
  5  1  1  0
  6  8  1  0
  7  2  1  0
  8  1  1  0
  9  1  1  0
 10  7  2  0
 11  4  1  0
 12  2  1  0
 13  5  1  0
  9 14  1  1
 15 14  1  0
 16 11  1  0
 17 22  1  0
 18  6  2  0
 19  9  1  0
 20 15  2  0
 21 17  2  0
 22 12  1  0
  1 23  1  1
  2 24  1  1
 25 15  1  0
 19 13  1  0
  4  3  1  0
 16  7  1  0
 17 10  1  0
M  END
> <COMPOUND_ID>
DNDI1417525

$$$$

  SciTegic04051205032D

 24 27  0  0  0  0            999 V2000
    8.7005   -6.6148    0.0000 C   0  0
    8.2112   -7.3029    0.0000 C   0  0
    7.7616   -5.4710    0.0000 S   0  0
    8.4895   -5.8013    0.0000 C   0  0
    8.4743   -8.0400    0.0000 N   0  0
    7.0430   -5.8533    0.0000 C   0  0
    7.4008   -7.3029    0.0000 C   0  0
    6.8533   -6.6790    0.0000 C   0  0
    9.3153   -9.4865    0.0000 N   0  0
    6.4099   -5.2997    0.0000 C   0  0
    9.4865   -6.8014    0.0000 C   0  0
    9.2847   -8.0400    0.0000 C   0  0
    8.0767   -8.7800    0.0000 C   0  0
    9.0584   -5.2325    0.0000 C   0  0
    6.0643   -6.9359    0.0000 C   0  0
    5.6331   -5.5749    0.0000 C   0  0
    9.6975   -8.7525    0.0000 C   0  0
    8.4895   -9.4865    0.0000 C   0  0
   10.0584   -6.2203    0.0000 C   0  0
    5.4649   -6.3885    0.0000 C   0  0
    9.8566   -5.4557    0.0000 C   0  0
    5.0000   -5.0000    0.0000 F   0  0
   10.9209   -6.4465    0.0000 O   0  0
    9.7740  -10.1777    0.0000 C   0  0
  2  1  1  0
  3  4  1  0
  4  1  2  0
  5  2  1  0
  6  3  1  0
  7  2  1  0
  8  7  1  0
  9 17  1  0
 10  6  1  0
 11  1  1  0
 12  5  1  0
 13  5  1  0
 14  4  1  0
 15  8  1  0
 16 10  2  0
 17 12  1  0
 18 13  1  0
 19 11  2  0
 20 15  2  0
 21 19  1  0
 22 16  1  0
 23 19  1  0
 24  9  1  0
 21 14  2  0
  6  8  2  0
  9 18  1  0
 16 20  1  0
M  END
> <COMPOUND_ID>
DNDI1417526

$$$$

  SciTegic04051205032D

 24 26  0  0  0  0            999 V2000
    8.5710   -6.6485    0.0000 C   0  0
    8.5710   -7.4747    0.0000 N   0  0
    7.8568   -6.2457    0.0000 C   0  0
    8.2180   -8.7702    0.0000 N   0  0
    9.2644   -7.9315    0.0000 N   0  0
    7.9273   -7.9979    0.0000 C   0  0
    9.2810   -6.2415    0.0000 C   0  0
    9.0443   -8.7287    0.0000 C   0  0
    7.1425   -6.6568    0.0000 C   0  0
    9.9951   -6.6485    0.0000 S   0  0
    7.8568   -5.4194    0.0000 O   0  0
    7.1467   -7.4872    0.0000 C   0  0
    6.4242   -6.2499    0.0000 C   0  0
   10.7093   -6.2374    0.0000 C   0  0
    5.7100   -7.4872    0.0000 C   0  0
   12.1376   -5.4111    0.0000 C   0  0
    6.4284   -7.9024    0.0000 C   0  0
    5.7142   -6.6609    0.0000 C   0  0
    5.0000   -7.8982    0.0000 F   0  0
   12.8477   -5.0000    0.0000 F   0  0
   11.4235   -6.6485    0.0000 C   0  0
   10.7093   -5.4153    0.0000 C   0  0
   11.4193   -5.0000    0.0000 C   0  0
   12.1376   -6.2374    0.0000 C   0  0
  2  1  1  0
  3  1  1  0
  4  6  2  0
  5  2  1  0
  6  2  1  0
  7  1  1  0
  8  5  2  0
  9  3  1  0
 10  7  1  0
 11  3  2  0
 12  9  1  0
 13  9  2  0
 14 10  1  0
 15 18  2  0
 16 23  1  0
 17 12  2  0
 18 13  1  0
 19 15  1  0
 20 16  1  0
 21 14  2  0
 22 14  1  0
 23 22  2  0
 24 21  1  0
  8  4  1  0
 15 17  1  0
 16 24  2  0
M  END
> <COMPOUND_ID>
DNDI1417527

$$$$

  SciTegic04051205032D

 26 29  0  0  0  0            999 V2000
    8.0055   -6.8577    0.0000 C   0  0
    7.7512   -6.0843    0.0000 C   0  0
    7.3310   -7.3380    0.0000 N   0  0
    6.9284   -6.0843    0.0000 C   0  0
    8.8108   -7.0273    0.0000 C   0  0
    6.6741   -6.8506    0.0000 C   0  0
    8.2986   -5.4662    0.0000 C   0  0
   11.4914   -8.3305    0.0000 C   0  0
    9.3618   -6.4304    0.0000 C   0  0
   10.4283   -7.3804    0.0000 N   0  0
    6.3703   -5.4662    0.0000 C   0  0
    9.0721   -7.8360    0.0000 O   0  0
   11.2442   -7.5570    0.0000 N   0  0
    9.1145   -5.6427    0.0000 C   0  0
   12.3073   -8.5106    0.0000 O   0  0
    5.8582   -7.0061    0.0000 C   0  0
   10.9405   -8.9521    0.0000 C   0  0
   10.1670   -6.6034    0.0000 C   0  0
    5.5650   -5.6287    0.0000 C   0  0
    5.3001   -6.3950    0.0000 C   0  0
   11.1912   -9.7255    0.0000 C   0  0
   10.1282   -8.7719    0.0000 C   0  0
    5.0000   -5.0000    0.0000 C   0  0
   10.6402  -10.3365    0.0000 C   0  0
    9.5807   -9.3759    0.0000 C   0  0
    9.8244  -10.1599    0.0000 C   0  0
  2  1  2  0
  3  1  1  0
  4  2  1  0
  5  1  1  0
  6  3  1  0
  7  2  1  0
  8 13  1  0
  9  5  1  0
 10 18  2  0
 11  4  1  0
 12  5  2  0
 13 10  1  0
 14  9  1  0
 15  8  2  0
 16  6  1  0
 17  8  1  0
 18  9  1  0
 19 11  2  0
 20 16  2  0
 21 17  2  0
 22 17  1  0
 23 19  1  0
 24 21  1  0
 25 22  2  0
 26 25  1  0
  6  4  2  0
 14  7  1  0
 20 19  1  0
 26 24  2  0
M  END
> <COMPOUND_ID>
DNDI1417528

$$$$

  SciTegic04051205032D

 26 28  0  0  0  0            999 V2000
    7.5289   -7.2215    0.0000 N   0  0
    6.7058   -7.2049    0.0000 C   0  0
    7.9520   -6.4942    0.0000 N   0  0
    8.7949   -6.4942    0.0000 C   0  0
    6.2727   -7.9123    0.0000 C   0  0
    9.2181   -7.2215    0.0000 C   0  0
    5.4396   -7.9123    0.0000 N   0  0
    6.3057   -6.4710    0.0000 C   0  0
    9.2181   -5.7603    0.0000 O   0  0
   10.0412   -7.2116    0.0000 C   0  0
    8.8115   -7.8826    0.0000 C   0  0
    9.9983   -8.5900    0.0000 C   0  0
    9.2346   -8.6000    0.0000 C   0  0
   10.4247   -7.8958    0.0000 C   0  0
   10.3454   -9.3073    0.0000 O   0  0
    5.0000   -8.6165    0.0000 C   0  0
    6.6661   -8.6495    0.0000 C   0  0
    6.7288   -5.7504    0.0000 C   0  0
    5.4727   -6.4545    0.0000 C   0  0
    9.8892   -9.9850    0.0000 C   0  0
   10.2395  -10.7024    0.0000 C   0  0
    5.4066   -9.3636    0.0000 C   0  0
    6.3222   -5.0165    0.0000 C   0  0
    6.2462   -9.3636    0.0000 C   0  0
    5.0661   -5.7240    0.0000 C   0  0
    5.4925   -5.0000    0.0000 C   0  0
  2  1  2  0
  3  1  1  0
  4  3  1  0
  5  2  1  0
  6  4  1  0
  7  5  2  0
  8  2  1  0
  9  4  2  0
 10  6  1  0
 11  6  2  0
 12 13  2  0
 13 11  1  0
 14 10  2  0
 15 12  1  0
 16  7  1  0
 17  5  1  0
 18  8  2  0
 19  8  1  0
 20 15  1  0
 21 20  1  0
 22 16  2  0
 23 18  1  0
 24 17  2  0
 25 19  2  0
 26 23  2  0
 22 24  1  0
 12 14  1  0
 26 25  1  0
M  END
> <COMPOUND_ID>
DNDI1417529

$$$$

  SciTegic04051205032D

 26 29  0  0  0  0            999 V2000
    7.2073   -7.7742    0.0000 N   0  0
    7.6877   -8.4364    0.0000 C   0  0
    7.2073   -9.1029    0.0000 N   0  0
    6.4196   -8.0209    0.0000 C   0  0
    6.4196   -8.8432    0.0000 C   0  0
    7.4583   -6.9822    0.0000 C   0  0
    6.8740   -6.3893    0.0000 C   0  0
    7.4583   -9.8906    0.0000 C   0  0
    8.5186   -8.4364    0.0000 N   0  0
    7.0948   -5.5929    0.0000 C   0  0
    8.2589  -10.0723    0.0000 C   0  0
    7.8868   -5.3722    0.0000 F   0  0
    5.7141   -7.6184    0.0000 C   0  0
    5.7141   -9.2587    0.0000 C   0  0
    8.5186  -10.8470    0.0000 C   0  0
    6.0647   -6.6100    0.0000 C   0  0
    6.5018   -5.0000    0.0000 C   0  0
    9.3280  -11.0245    0.0000 C   0  0
    7.9689  -11.4616    0.0000 C   0  0
    5.0000   -8.0209    0.0000 C   0  0
    5.0000   -8.8432    0.0000 C   0  0
    5.4848   -6.0257    0.0000 C   0  0
    5.7055   -5.2164    0.0000 C   0  0
    9.5747  -11.8122    0.0000 C   0  0
    8.2200  -12.2406    0.0000 C   0  0
    9.0294  -12.4138    0.0000 C   0  0
  2  1  1  0
  3  2  1  0
  4  1  1  0
  5  4  2  0
  6  1  1  0
  7  6  1  0
  8  3  1  0
  9  2  2  0
 10  7  2  0
 11  8  1  0
 12 10  1  0
 13  4  1  0
 14  5  1  0
 15 11  1  0
 16  7  1  0
 17 10  1  0
 18 15  1  0
 19 15  2  0
 20 13  2  0
 21 20  1  0
 22 16  2  0
 23 22  1  0
 24 18  2  0
 25 19  1  0
 26 25  2  0
  3  5  1  0
 21 14  2  0
 23 17  2  0
 26 24  1  0
M  END
> <COMPOUND_ID>
DNDI1417530

$$$$

  SciTegic04051205032D

 26 28  0  0  0  0            999 V2000
   12.8346   -5.8287    0.0000 C   0  0
   12.1261   -6.2430    0.0000 C   0  0
   10.7051   -7.0717    0.0000 C   0  0
    9.9883   -7.4859    0.0000 C   0  0
    9.2757   -7.0717    0.0000 C   0  0
   11.4011   -5.8328    0.0000 C   0  0
   12.1261   -7.0717    0.0000 C   0  0
   11.4176   -7.4859    0.0000 C   0  0
   10.6967   -6.2513    0.0000 C   0  0
    7.1419   -5.8370    0.0000 O   0  0
    9.2757   -6.2513    0.0000 C   0  0
    8.5589   -7.4859    0.0000 C   0  0
    7.8504   -6.2513    0.0000 C   0  0
    8.5589   -5.8370    0.0000 C   0  0
    7.8504   -7.0717    0.0000 C   0  0
    6.4294   -6.2554    0.0000 C   0  0
   10.7051   -8.7206    0.0000 N   0  0
    9.9883   -8.3146    0.0000 C   0  0
   12.8346   -5.0000    0.0000 C   0  0
   13.0542   -6.6283    0.0000 C   0  0
   13.5514   -6.2347    0.0000 C   0  0
    6.4294   -7.0882    0.0000 C   0  0
    5.7209   -5.8452    0.0000 C   0  0
    5.7209   -7.4983    0.0000 C   0  0
    5.0000   -6.2554    0.0000 C   0  0
    5.0000   -7.0882    0.0000 C   0  0
  2  1  1  0
  3  8  2  0
  4  3  1  0
  5  4  1  0
  6  2  1  0
  7  2  2  0
  8  7  1  0
  9  6  2  0
 10 13  1  0
 11  5  1  0
 12  5  2  0
 13 14  1  0
 14 11  2  0
 15 12  1  0
 16 10  1  0
 17 18  1  0
 18  4  1  0
 19  1  1  0
 20  1  1  0
 21  1  1  0
 22 16  1  0
 23 16  2  0
 24 22  2  0
 25 23  1  0
 26 25  2  0
  9  3  1  0
 13 15  2  0
 26 24  1  0
M  END
> <COMPOUND_ID>
DNDI1417531

$$$$

  SciTegic04051205032D

 24 25  0  0  0  0            999 V2000
   12.5741   -7.3536    0.0000 C   0  0
   11.8605   -6.9405    0.0000 C   0  0
    9.0061   -6.1267    0.0000 C   0  0
    9.7197   -5.7136    0.0000 C   0  0
   10.4291   -6.9530    0.0000 N   0  0
   10.4333   -6.1267    0.0000 C   0  0
   11.1469   -7.3661    0.0000 O   0  0
    8.2925   -5.7136    0.0000 N   0  0
   13.2834   -6.9280    0.0000 C   0  0
   11.8480   -6.1225    0.0000 O   0  0
    9.0061   -6.9530    0.0000 O   0  0
    7.4663   -5.7136    0.0000 C   0  0
   11.0175   -5.5383    0.0000 N   0  0
   13.2751   -6.1017    0.0000 Cl  0  0
    5.8263   -5.7094    0.0000 C   0  0
   12.5741   -8.1799    0.0000 C   0  0
    7.0531   -6.4230    0.0000 C   0  0
    7.0531   -5.0000    0.0000 C   0  0
    6.2352   -6.4230    0.0000 C   0  0
    6.2394   -5.0000    0.0000 C   0  0
   14.0012   -7.3369    0.0000 C   0  0
    5.0000   -5.7011    0.0000 C   0  0
   13.2960   -8.5888    0.0000 C   0  0
   14.0095   -8.1674    0.0000 C   0  0
  2  1  1  0
  3  4  1  0
  4  6  1  0
  5  7  1  0
  6  5  2  0
  7  2  1  0
  8  3  1  0
  9  1  1  0
 10  2  2  0
 11  3  2  0
 12  8  1  0
 13  6  1  0
 14  9  1  0
 15 20  1  0
 16  1  2  0
 17 12  2  0
 18 12  1  0
 19 17  1  0
 20 18  2  0
 21  9  2  0
 22 15  1  0
 23 16  1  0
 24 23  2  0
 21 24  1  0
 15 19  2  0
M  END
> <COMPOUND_ID>
DNDI1417532

$$$$

  SciTegic04051205032D

 23 25  0  0  0  0            999 V2000
    7.2511   -7.0035    0.0000 C   0  0
    6.5431   -8.2271    0.0000 N   0  0
    7.9556   -6.5946    0.0000 C   0  0
    8.7701   -6.8043    0.0000 N   0  0
    7.2511   -7.8215    0.0000 C   0  0
    9.3647   -6.1960    0.0000 C   0  0
    5.8455   -7.8215    0.0000 C   0  0
    6.5431   -6.5946    0.0000 C   0  0
   10.1861   -6.3334    0.0000 N   0  0
    6.5431   -9.0656    0.0000 C   0  0
    5.8455   -7.0035    0.0000 C   0  0
    7.2751   -9.4780    0.0000 C   0  0
    9.2203   -5.3848    0.0000 S   0  0
   10.5573   -5.5945    0.0000 C   0  0
    7.5467   -5.8832    0.0000 O   0  0
    5.1650   -7.7700    0.0000 O   0  0
    7.2751  -10.3201    0.0000 C   0  0
    9.9696   -5.0000    0.0000 C   0  0
    6.5431  -10.7428    0.0000 Cl  0  0
    8.0140   -9.0656    0.0000 C   0  0
    7.9934  -10.7428    0.0000 C   0  0
    8.7357   -9.4918    0.0000 C   0  0
    8.7324  -10.3304    0.0000 C   0  0
  2  5  1  0
  3  1  1  0
  4  3  1  0
  5  1  2  0
  6  4  1  0
  7 11  1  0
  8  1  1  0
  9  6  2  0
 10  2  1  0
 11  8  2  0
 12 10  1  0
 13  6  1  0
 14  9  1  0
 15  3  2  0
 16  7  2  0
 17 12  2  0
 18 13  1  0
 19 17  1  0
 20 12  1  0
 21 17  1  0
 22 20  2  0
 23 22  1  0
  2  7  1  0
 14 18  2  0
 21 23  2  0
M  END
> <COMPOUND_ID>
DNDI1417533

$$$$

  SciTegic04051205032D

 23 25  0  0  0  0            999 V2000
    7.1714   -7.0110    0.0000 C   0  0
    7.8791   -6.6001    0.0000 C   0  0
    7.8462   -5.7514    0.0000 C   0  0
    7.1563   -5.3735    0.0000 S   0  0
    6.4666   -6.6391    0.0000 C   0  0
    6.4666   -5.7843    0.0000 C   0  0
    8.5749   -6.9720    0.0000 C   0  0
    8.5749   -5.3345    0.0000 C   0  0
    9.2917   -6.5701    0.0000 C   0  0
    9.2917   -5.7064    0.0000 C   0  0
    7.1714   -7.8657    0.0000 C   0  0
    9.9875   -7.0110    0.0000 Cl  0  0
    8.5749   -9.5182    0.0000 N   0  0
    9.9665   -5.2475    0.0000 O   0  0
    7.8791   -8.2916    0.0000 C   0  0
    5.7198   -7.0470    0.0000 C   0  0
    5.7198   -5.3345    0.0000 C   0  0
    7.8941   -9.0773    0.0000 C   0  0
    8.6379  -10.3250    0.0000 C   0  0
    9.2917   -9.0924    0.0000 C   0  0
   10.7012   -5.6074    0.0000 C   0  0
    5.0000   -6.6001    0.0000 C   0  0
    5.0360   -5.7604    0.0000 C   0  0
  2  1  1  0
  3  2  1  0
  4  6  1  0
  5  1  1  0
  6  5  2  0
  7  2  2  0
  8  3  2  0
  9  7  1  0
 10  9  2  0
 11  1  2  0
 12  9  1  0
 13 18  1  0
 14 10  1  0
 15 11  1  0
 16  5  1  0
 17  6  1  0
 18 15  1  0
 19 13  1  0
 20 13  1  0
 21 14  1  0
 22 16  2  0
 23 22  1  0
  4  3  1  0
 23 17  2  0
 10  8  1  0
M  END
> <COMPOUND_ID>
DNDI1417534

$$$$

  SciTegic04051205032D

 23 25  0  0  0  0            999 V2000
    8.8250   -7.8201    0.0000 C   0  0
    8.3538   -7.2049    0.0000 N   0  0
    9.6359   -7.8201    0.0000 C   0  0
    8.3538   -8.5071    0.0000 O   0  0
    7.5509   -7.4566    0.0000 C   0  0
    7.5509   -8.2515    0.0000 C   0  0
   10.0633   -7.1210    0.0000 C   0  0
   10.0633   -8.5271    0.0000 C   0  0
   10.8942   -8.5271    0.0000 N   0  0
   11.2696   -6.4061    0.0000 C   0  0
   10.8822   -7.1210    0.0000 N   0  0
    6.7680   -7.0172    0.0000 C   0  0
   12.0844   -6.4061    0.0000 C   0  0
   10.8822   -5.7111    0.0000 C   0  0
    6.7680   -8.7188    0.0000 C   0  0
   11.2696   -5.0000    0.0000 C   0  0
    6.0650   -7.4566    0.0000 C   0  0
   12.5158   -5.7111    0.0000 C   0  0
    6.0650   -8.2515    0.0000 C   0  0
   12.0844   -5.0000    0.0000 C   0  0
    5.3300   -7.0532    0.0000 Cl  0  0
   13.3306   -5.7271    0.0000 Cl  0  0
   10.0793   -5.7271    0.0000 O   0  0
  2  1  2  0
  3  1  1  0
  4  1  1  0
  5  2  1  0
  6  4  1  0
  7  3  2  0
  8  3  1  0
  9  8  3  0
 10 11  1  0
 11  7  1  0
 12  5  1  0
 13 10  1  0
 14 10  2  0
 15  6  1  0
 16 14  1  0
 17 12  2  0
 18 13  2  0
 19 15  2  0
 20 18  1  0
 21 17  1  0
 22 18  1  0
 23 14  1  0
  5  6  2  0
 17 19  1  0
 20 16  2  0
M  END
> <COMPOUND_ID>
DNDI1417535

$$$$

  SciTegic04051205032D

 25 26  0  0  0  0            999 V2000
   10.1512   -8.7240    0.0000 C   0  0
    9.4388   -8.3199    0.0000 C   0  0
   10.8718   -8.3199    0.0000 N   0  0
    8.7348   -8.7240    0.0000 N   0  0
   11.5841   -8.7240    0.0000 N   0  0
    5.8856   -7.0703    0.0000 C   0  0
   13.7335   -7.4869    0.0000 N   0  0
   12.3006   -8.3199    0.0000 C   0  0
    6.5896   -7.4744    0.0000 C   0  0
   10.1512   -9.5488    0.0000 O   0  0
    9.4388   -7.4869    0.0000 O   0  0
    5.1650   -7.4744    0.0000 O   0  0
   13.0004   -8.7240    0.0000 C   0  0
   12.2881   -7.4869    0.0000 C   0  0
    8.0142   -8.3199    0.0000 C   0  0
    7.3019   -7.0703    0.0000 C   0  0
    6.5896   -8.3074    0.0000 C   0  0
   13.0004   -7.0745    0.0000 C   0  0
   13.7210   -8.3199    0.0000 C   0  0
    5.8856   -6.2372    0.0000 O   0  0
    8.0225   -7.4744    0.0000 C   0  0
    7.3019   -8.7240    0.0000 C   0  0
   14.4375   -7.0745    0.0000 C   0  0
    5.1733   -5.8248    0.0000 C   0  0
    5.1858   -5.0000    0.0000 C   0  0
  2  1  1  0
  3  1  1  0
  4  2  1  0
  5  3  1  0
  6  9  1  0
  7 18  1  0
  8  5  2  0
  9 17  1  0
 10  1  2  0
 11  2  2  0
 12  6  2  0
 13  8  1  0
 14  8  1  0
 15  4  1  0
 16 21  1  0
 17 22  2  0
 18 14  1  0
 19 13  1  0
 20  6  1  0
 21 15  2  0
 22 15  1  0
 23  7  1  0
 24 20  1  0
 25 24  1  0
 19  7  1  0
 16  9  2  0
M  END
> <COMPOUND_ID>
DNDI1417536

$$$$

  SciTegic04051205032D

 26 29  0  0  0  0            999 V2000
    7.8509   -7.1386    0.0000 C   0  0
    8.6801   -7.1386    0.0000 N   0  0
    7.4785   -6.4047    0.0000 C   0  0
    9.9067   -6.4659    0.0000 N   0  0
    7.4300   -7.8041    0.0000 C   0  0
    6.6494   -6.4047    0.0000 C   0  0
   10.2971   -7.1674    0.0000 N   0  0
    9.0578   -7.8635    0.0000 C   0  0
    6.6278   -7.8041    0.0000 C   0  0
    6.2357   -7.1062    0.0000 C   0  0
    9.8654   -7.8635    0.0000 C   0  0
    7.8923   -5.7393    0.0000 N   0  0
    7.8095   -8.5128    0.0000 O   0  0
    6.2735   -5.7033    0.0000 O   0  0
    8.6567   -8.4948    0.0000 C   0  0
    6.2123   -8.4840    0.0000 C   0  0
    5.3957   -7.1134    0.0000 C   0  0
   10.2053   -8.5434    0.0000 C   0  0
    8.6675   -5.7393    0.0000 C   0  0
    7.4965   -5.0126    0.0000 C   0  0
    9.0110   -9.1981    0.0000 C   0  0
    6.6314   -5.0126    0.0000 C   0  0
    9.0722   -5.0000    0.0000 C   0  0
    5.3831   -8.4840    0.0000 C   0  0
    5.0000   -7.7807    0.0000 C   0  0
    9.8042   -9.1981    0.0000 C   0  0
  2  1  1  0
  3  1  2  0
  4  2  1  0
  5  1  1  0
  6  3  1  0
  7  4  2  0
  8  2  1  0
  9  5  1  0
 10  9  2  0
 11  8  2  0
 12  3  1  0
 13  5  2  0
 14  6  2  0
 15  8  1  0
 16  9  1  0
 17 10  1  0
 18 11  1  0
 19 12  1  0
 20 12  1  0
 21 15  2  0
 22 20  1  0
 23 19  1  0
 24 16  2  0
 25 17  2  0
 26 21  1  0
 10  6  1  0
  7 11  1  0
 25 24  1  0
 26 18  2  0
M  END
> <COMPOUND_ID>
DNDI1417537

$$$$

  SciTegic04051205032D

 26 29  0  0  0  0            999 V2000
    7.8731   -6.5114    0.0000 C   0  0
    9.8660   -6.2954    0.0000 C   0  0
    7.1549   -6.9224    0.0000 C   0  0
    8.5748   -6.9224    0.0000 C   0  0
    9.0481   -6.2456    0.0000 N   0  0
   10.2190   -7.0428    0.0000 N   0  0
   10.3311   -5.6145    0.0000 N   0  0
    6.4324   -6.4989    0.0000 C   0  0
    8.7699   -7.7196    0.0000 C   0  0
    7.8731   -5.6768    0.0000 C   0  0
    8.2260   -8.3299    0.0000 O   0  0
    5.7307   -6.9224    0.0000 N   0  0
   11.1614   -5.6768    0.0000 C   0  0
   11.0618   -7.0968    0.0000 C   0  0
    9.5173   -8.0392    0.0000 C   0  0
   11.5102   -6.4242    0.0000 C   0  0
    8.6495   -9.0357    0.0000 C   0  0
    6.4324   -5.6768    0.0000 C   0  0
    7.1424   -5.2533    0.0000 C   0  0
    9.4674   -8.8406    0.0000 C   0  0
    7.1549   -7.7445    0.0000 O   0  0
    5.0125   -6.5114    0.0000 C   0  0
   11.6140   -5.0000    0.0000 C   0  0
   11.4105   -7.8441    0.0000 C   0  0
    5.7307   -5.2658    0.0000 C   0  0
    5.0000   -5.6768    0.0000 C   0  0
  2  5  1  0
  3  1  2  0
  4  1  1  0
  5  4  1  0
  6  2  2  0
  7  2  1  0
  8  3  1  0
  9  4  1  0
 10  1  1  0
 11  9  1  0
 12  8  1  0
 13  7  2  0
 14  6  1  0
 15  9  2  0
 16 13  1  0
 17 11  1  0
 18 19  1  0
 19 10  2  0
 20 15  1  0
 21  3  1  0
 22 12  2  0
 23 13  1  0
 24 14  1  0
 25 18  1  0
 26 25  2  0
  8 18  2  0
 17 20  2  0
 22 26  1  0
 14 16  2  0
M  END
> <COMPOUND_ID>
DNDI1417538

$$$$

  SciTegic04051205032D

 26 28  0  0  0  0            999 V2000
    9.3361   -5.4192    0.0000 C   0  0
    8.6283   -5.0172    0.0000 N   0  0
    9.3532   -6.2404    0.0000 C   0  0
   10.0473   -5.0000    0.0000 O   0  0
    5.7078   -9.1609    0.0000 N   0  0
   10.0611   -6.6595    0.0000 C   0  0
    8.6283   -6.6595    0.0000 C   0  0
    7.9033   -5.4329    0.0000 C   0  0
    6.4809   -6.2713    0.0000 C   0  0
    5.7422   -6.6733    0.0000 C   0  0
    9.3361   -7.9034    0.0000 C   0  0
    8.6283   -7.4808    0.0000 C   0  0
   10.0473   -7.4808    0.0000 C   0  0
    7.1955   -5.0309    0.0000 C   0  0
    7.9205   -6.2713    0.0000 C   0  0
    7.1955   -6.6733    0.0000 C   0  0
    6.4809   -5.4502    0.0000 C   0  0
    5.7249   -7.5014    0.0000 C   0  0
    9.3361   -8.7280    0.0000 O   0  0
    5.0000   -8.7417    0.0000 C   0  0
    6.4190   -8.7555    0.0000 C   0  0
    5.0172   -7.9206    0.0000 C   0  0
    6.4328   -7.9343    0.0000 C   0  0
    8.6283   -9.1437    0.0000 C   0  0
    8.6455   -9.9649    0.0000 C   0  0
    7.9342  -10.3841    0.0000 C   0  0
  2  1  1  0
  3  1  1  0
  4  1  2  0
  5 21  1  0
  6  3  1  0
  7  3  2  0
  8  2  1  0
  9 16  2  0
 10  9  1  0
 11 12  2  0
 12  7  1  0
 13  6  2  0
 14  8  1  0
 15  8  2  0
 16 15  1  0
 17 14  2  0
 18 10  1  0
 19 11  1  0
 20 22  1  0
 21 23  2  0
 22 18  2  0
 23 18  1  0
 24 19  1  0
 25 24  1  0
 26 25  1  0
 11 13  1  0
  9 17  1  0
 20  5  2  0
M  END
> <COMPOUND_ID>
DNDI1417539

$$$$

  SciTegic04051205032D

 26 28  0  0  0  0            999 V2000
    7.1454   -9.5349    0.0000 N   0  0
    7.8571   -9.9475    0.0000 C   0  0
    7.1454   -7.0629    0.0000 C   0  0
    6.4302   -9.9475    0.0000 C   0  0
    7.1454   -6.2378    0.0000 N   0  0
    6.4302   -7.4755    0.0000 C   0  0
    7.8571  -10.7726    0.0000 N   0  0
    5.7117   -9.5349    0.0000 N   0  0
    6.4302  -10.7726    0.0000 C   0  0
    6.4302   -8.2972    0.0000 C   0  0
    7.8571   -7.4755    0.0000 O   0  0
    5.7117   -8.7098    0.0000 C   0  0
    8.5688   -9.5349    0.0000 C   0  0
    7.1454  -11.1852    0.0000 C   0  0
    7.8571   -5.8252    0.0000 C   0  0
    5.7117   -7.0629    0.0000 C   0  0
    5.0000   -7.4755    0.0000 C   0  0
    5.0000   -8.2972    0.0000 C   0  0
    9.2873   -9.9475    0.0000 C   0  0
    8.5688   -8.7098    0.0000 C   0  0
    8.5688   -6.2378    0.0000 C   0  0
    7.8571   -5.0000    0.0000 C   0  0
    9.2873   -5.8252    0.0000 C   0  0
   10.0025   -9.5349    0.0000 C   0  0
    9.2873   -8.2972    0.0000 C   0  0
   10.0025   -8.7098    0.0000 C   0  0
  2  1  1  0
  3  6  1  0
  4  1  2  0
  5  3  1  0
  6 10  2  0
  7  2  2  0
  8  4  1  0
  9  4  1  0
 10 12  1  0
 11  3  2  0
 12  8  1  0
 13  2  1  0
 14  9  2  0
 15  5  1  0
 16 17  2  0
 17 18  1  0
 18 12  2  0
 19 13  2  0
 20 13  1  0
 21 15  1  0
 22 15  1  0
 23 21  1  0
 24 19  1  0
 25 20  2  0
 26 25  1  0
 14  7  1  0
 24 26  2  0
 16  6  1  0
M  END
> <COMPOUND_ID>
DNDI1417540

$$$$

  SciTegic04051205032D

 26 29  0  0  0  0            999 V2000
   10.6396   -6.4305    0.0000 N   0  0
   10.5613   -7.2579    0.0000 C   0  0
   11.2998   -7.5881    0.0000 N   0  0
    7.6939   -7.2579    0.0000 C   0  0
    7.1987   -6.5913    0.0000 N   0  0
    7.1987   -7.9182    0.0000 N   0  0
   11.4437   -6.2612    0.0000 C   0  0
   11.8564   -6.9786    0.0000 C   0  0
    9.8439   -7.6684    0.0000 C   0  0
    6.4305   -6.8389    0.0000 C   0  0
    6.4305   -7.6684    0.0000 C   0  0
    9.8185   -6.4305    0.0000 C   0  0
    9.1286   -7.2579    0.0000 N   0  0
    8.4113   -7.6684    0.0000 N   0  0
    9.4016   -5.7173    0.0000 C   0  0
   11.8564   -5.5523    0.0000 C   0  0
   12.6838   -6.9786    0.0000 C   0  0
    5.7132   -6.4305    0.0000 C   0  0
    5.7132   -8.0811    0.0000 C   0  0
    8.5805   -5.7173    0.0000 C   0  0
    8.1637   -5.0000    0.0000 C   0  0
    8.1637   -6.4305    0.0000 C   0  0
   12.6838   -5.5523    0.0000 C   0  0
   13.1261   -6.2612    0.0000 C   0  0
    5.0000   -7.6684    0.0000 C   0  0
    5.0000   -6.8389    0.0000 C   0  0
  2  1  1  0
  3  2  2  0
  4 14  1  0
  5  4  2  0
  6  4  1  0
  7  1  1  0
  8  7  2  0
  9  2  1  0
 10  5  1  0
 11  6  1  0
 12  1  1  0
 13  9  2  0
 14 13  1  0
 15 12  1  0
 16  7  1  0
 17  8  1  0
 18 10  2  0
 19 11  2  0
 20 15  1  0
 21 20  1  0
 22 20  1  0
 23 16  2  0
 24 23  1  0
 25 19  1  0
 26 18  1  0
  3  8  1  0
 17 24  2  0
 10 11  1  0
 25 26  2  0
M  END
> <COMPOUND_ID>
DNDI1417541

$$$$

  SciTegic04051205032D

 24 26  0  0  0  0            999 V2000
    7.3047   -6.5683    0.0000 C   0  0
    7.3047   -7.3899    0.0000 C   0  0
    8.0972   -6.3138    0.0000 N   0  0
    6.5957   -6.1512    0.0000 N   0  0
    5.8865   -7.3899    0.0000 N   0  0
    5.8865   -6.5683    0.0000 C   0  0
    6.5957   -7.8028    0.0000 C   0  0
    8.5852   -6.9770    0.0000 C   0  0
    8.0972   -7.6402    0.0000 N   0  0
    9.4068   -6.9770    0.0000 O   0  0
    5.1650   -6.1596    0.0000 O   0  0
    6.5957   -8.6287    0.0000 O   0  0
    9.9991   -6.3889    0.0000 C   0  0
   10.7999   -6.6016    0.0000 C   0  0
    6.5957   -5.3337    0.0000 C   0  0
    5.1775   -7.8028    0.0000 C   0  0
    8.3516   -8.4285    0.0000 C   0  0
    7.8052   -9.0416    0.0000 C   0  0
    8.0680   -9.8174    0.0000 C   0  0
   11.0085   -7.3983    0.0000 Cl  0  0
    9.7697   -5.5881    0.0000 C   0  0
   11.3713   -6.0135    0.0000 C   0  0
   10.3536   -5.0000    0.0000 C   0  0
   11.1544   -5.2127    0.0000 C   0  0
  2  1  2  0
  3  1  1  0
  4  1  1  0
  5  6  1  0
  6  4  1  0
  7  2  1  0
  8  3  2  0
  9  2  1  0
 10  8  1  0
 11  6  2  0
 12  7  2  0
 13 10  1  0
 14 13  2  0
 15  4  1  0
 16  5  1  0
 17  9  1  0
 18 17  1  0
 19 18  2  0
 20 14  1  0
 21 13  1  0
 22 14  1  0
 23 21  2  0
 24 23  1  0
  5  7  1  0
  8  9  1  0
 24 22  2  0
M  END
> <COMPOUND_ID>
DNDI1417542

$$$$

  SciTegic04051205032D

 24 26  0  0  0  0            999 V2000
    7.8651   -6.6692    0.0000 N   0  0
    5.7225   -8.7205    0.0000 C   0  0
    6.4325   -7.4914    0.0000 N   0  0
    6.4325   -9.1399    0.0000 C   0  0
    7.1509   -8.7330    0.0000 C   0  0
    7.8526   -9.1565    0.0000 C   0  0
    8.5834   -6.2457    0.0000 C   0  0
    5.7225   -7.8942    0.0000 C   0  0
    7.8485   -9.9869    0.0000 C   0  0
    7.8651   -7.4914    0.0000 C   0  0
    7.1509   -6.2581    0.0000 C   0  0
    5.0000   -9.1316    0.0000 O   0  0
    6.4201   -9.9620    0.0000 C   0  0
    7.1301  -10.3856    0.0000 C   0  0
    8.5751   -5.4235    0.0000 C   0  0
    9.2976   -6.6692    0.0000 C   0  0
    6.4408   -6.6692    0.0000 C   0  0
    7.1550   -7.8984    0.0000 C   0  0
   10.0077   -5.4235    0.0000 C   0  0
    8.5710   -8.7579    0.0000 O   0  0
    9.2976   -5.0124    0.0000 C   0  0
   10.0077   -6.2457    0.0000 C   0  0
   10.7260   -5.0000    0.0000 Cl  0  0
    8.5627  -10.4022    0.0000 O   0  0
  2  8  1  0
  3 17  1  0
  4  2  1  0
  5  4  2  0
  6  5  1  0
  7  1  1  0
  8  3  1  0
  9 14  1  0
 10  1  1  0
 11  1  1  0
 12  2  2  0
 13  4  1  0
 14 13  2  0
 15  7  1  0
 16  7  2  0
 17 11  1  0
 18 10  1  0
 19 22  2  0
 20  6  1  0
 21 15  2  0
 22 16  1  0
 23 19  1  0
 24  9  1  0
  3 18  1  0
 21 19  1  0
  9  6  2  0
M  END
> <COMPOUND_ID>
DNDI1417543

$$$$

  SciTegic04051205032D

 24 26  0  0  0  0            999 V2000
    8.7079   -9.9966    0.0000 N   0  0
    9.1238   -9.2818    0.0000 C   0  0
    9.9485   -9.2818    0.0000 C   0  0
   10.3609   -9.9966    0.0000 C   0  0
    9.9485  -10.7114    0.0000 C   0  0
    9.1238  -10.7114    0.0000 C   0  0
    8.7079   -7.1409    0.0000 C   0  0
    9.1238   -7.8557    0.0000 C   0  0
    8.7079   -8.5705    0.0000 C   0  0
   10.3609   -8.5705    0.0000 C   0  0
    7.8866   -7.1409    0.0000 N   0  0
    6.6495   -6.4261    0.0000 C   0  0
    9.9485   -7.8557    0.0000 C   0  0
    9.1238   -6.4261    0.0000 O   0  0
    6.2371   -7.1409    0.0000 O   0  0
   11.1822   -9.9966    0.0000 Cl  0  0
    7.4743   -6.4261    0.0000 C   0  0
    6.2371   -5.7113    0.0000 O   0  0
   10.3609  -11.4262    0.0000 C   0  0
    8.7079  -11.4262    0.0000 C   0  0
    5.4124   -5.7113    0.0000 C   0  0
    9.9485  -12.1410    0.0000 C   0  0
    9.1238  -12.1410    0.0000 C   0  0
    5.0000   -5.0000    0.0000 C   0  0
  2  1  1  0
  3  2  1  0
  4  5  2  0
  5  6  1  0
  6  1  2  0
  7  8  1  0
  8  9  1  0
  9  2  2  0
 10  3  2  0
 11  7  1  0
 12 17  1  0
 13  8  2  0
 14  7  2  0
 15 12  2  0
 16  4  1  0
 17 11  1  0
 18 12  1  0
 19  5  1  0
 20  6  1  0
 21 18  1  0
 22 23  1  0
 23 20  1  0
 24 21  1  0
  3  4  1  0
 19 22  1  0
 13 10  1  0
M  END
> <COMPOUND_ID>
DNDI1417544

$$$$

  SciTegic04051205032D

 23 25  0  0  0  0            999 V2000
    7.1324   -7.9302    0.0000 C   0  0
    6.3239   -7.7677    0.0000 C   0  0
    7.6760   -7.3159    0.0000 C   0  0
    8.5127   -7.4748    0.0000 C   0  0
    8.4669   -9.6530    0.0000 C   0  0
    5.7272   -8.3185    0.0000 O   0  0
    8.7563   -8.2585    0.0000 S   0  0
    7.9797  -10.3202    0.0000 O   0  0
    9.0282   -6.8675    0.0000 C   0  0
    5.9780   -7.0193    0.0000 C   0  0
    9.2577   -9.9037    0.0000 C   0  0
    5.0000   -7.9160    0.0000 C   0  0
    8.4810  -10.9946    0.0000 C   0  0
    7.4184   -8.7069    0.0000 O   0  0
    5.1801   -7.1182    0.0000 C   0  0
    9.2789  -10.7086    0.0000 C   0  0
    8.2091   -8.8764    0.0000 C   0  0
    9.8543   -7.0193    0.0000 C   0  0
    8.7563   -6.0767    0.0000 C   0  0
   10.1262   -5.6283    0.0000 C   0  0
    9.3036   -5.4766    0.0000 C   0  0
   10.4015   -6.4227    0.0000 C   0  0
   10.6628   -5.0000    0.0000 Cl  0  0
  2  1  1  0
  3  1  1  0
  4  3  1  0
  5 17  1  0
  6  2  1  0
  7  4  1  0
  8  5  1  0
  9  4  1  0
 10  2  2  0
 11  5  2  0
 12  6  1  0
 13  8  1  0
 14  1  2  0
 15 10  1  0
 16 11  1  0
 17  7  1  0
 18  9  2  0
 19  9  1  0
 20 22  2  0
 21 19  2  0
 22 18  1  0
 23 20  1  0
 12 15  2  0
 20 21  1  0
 13 16  2  0
M  END
> <COMPOUND_ID>
DNDI1417545

$$$$

  SciTegic04051205032D

 24 26  0  0  0  0            999 V2000
    7.8358   -6.4857    0.0000 C   0  0
    7.8358   -7.2845    0.0000 C   0  0
    7.1260   -6.0709    0.0000 C   0  0
    7.1260   -7.7054    0.0000 C   0  0
    6.4194   -6.4734    0.0000 C   0  0
    6.4194   -7.2968    0.0000 C   0  0
    8.5700   -6.0955    0.0000 N   0  0
   10.6470   -7.4135    0.0000 N   0  0
   10.6593   -6.6024    0.0000 C   0  0
    9.9249   -7.7791    0.0000 C   0  0
    9.2398   -6.5502    0.0000 C   0  0
    9.9618   -6.1723    0.0000 C   0  0
    9.2521   -7.3490    0.0000 C   0  0
    7.1260   -5.2475    0.0000 O   0  0
    7.1260   -8.5257    0.0000 O   0  0
    8.5578   -7.6655    0.0000 Cl  0  0
    5.7097   -6.0709    0.0000 C   0  0
    5.7097   -7.7054    0.0000 C   0  0
    9.3412   -8.4243    0.0000 C   0  0
   10.4687   -8.5011    0.0000 C   0  0
   10.9511   -5.6654    0.0000 C   0  0
   11.4059   -6.7530    0.0000 C   0  0
    5.0000   -6.4857    0.0000 C   0  0
    5.0000   -7.2845    0.0000 C   0  0
  2  1  2  0
  3  1  1  0
  4  2  1  0
  5  3  1  0
  6  4  1  0
  7  1  1  0
  8  9  1  0
  9 12  1  0
 10 13  1  0
 11  7  1  0
 12 11  1  0
 13 11  1  0
 14  3  2  0
 15  4  2  0
 16  2  1  0
 17  5  1  0
 18  6  1  0
 19 10  1  0
 20 10  1  0
 21  9  1  0
 22  9  1  0
 23 17  2  0
 24 18  2  0
  6  5  2  0
  8 10  1  0
 24 23  1  0
M  END
> <COMPOUND_ID>
DNDI1417546

$$$$

  SciTegic04051205032D

 21 23  0  0  0  0            999 V2000
    7.9368   -7.1835    0.0000 C   0  0
    8.4216   -7.8582    0.0000 C   0  0
    7.1508   -7.4368    0.0000 C   0  0
    7.9368   -8.5111    0.0000 N   0  0
    8.2316   -6.4127    0.0000 C   0  0
    7.1508   -8.2578    0.0000 C   0  0
    7.7054   -5.7752    0.0000 C   0  0
    6.4346   -7.0263    0.0000 C   0  0
    9.2491   -7.8582    0.0000 O   0  0
    6.8888   -5.9018    0.0000 C   0  0
    6.3713   -5.2686    0.0000 N   0  0
    6.4346   -8.6705    0.0000 C   0  0
    8.0001   -5.0000    0.0000 O   0  0
    7.5984   -6.4302    0.0000 O   0  0
    5.7184   -7.4368    0.0000 C   0  0
    5.7184   -8.2578    0.0000 C   0  0
    5.0000   -7.0307    0.0000 Br  0  0
    5.5633   -5.3952    0.0000 C   0  0
    6.5918   -6.6726    0.0000 C   0  0
    5.2577   -6.1660    0.0000 C   0  0
    5.7817   -6.8145    0.0000 C   0  0
  2  1  1  0
  3  1  1  0
  4  2  1  0
  5  1  1  0
  6  3  2  0
  7  5  1  0
  8  3  1  0
  9  2  2  0
 10  7  1  0
 11 10  2  0
 12  6  1  0
 13  7  2  0
 14  1  1  0
 15  8  2  0
 16 15  1  0
 17 15  1  0
 18 11  1  0
 19 10  1  0
 20 18  2  0
 21 19  2  0
  4  6  1  0
 16 12  2  0
 20 21  1  0
M  END
> <COMPOUND_ID>
DNDI1417547

$$$$

  SciTegic04051205032D

 26 29  0  0  0  0            999 V2000
    7.7982   -8.0340    0.0000 N   0  0
    7.7982   -8.8408    0.0000 C   0  0
    7.1004   -7.6469    0.0000 C   0  0
    8.5006   -7.6469    0.0000 N   0  0
    7.1004   -9.2372    0.0000 N   0  0
    6.3979   -8.0340    0.0000 C   0  0
    6.3979   -8.8408    0.0000 C   0  0
    8.5006   -6.8540    0.0000 C   0  0
    8.5006   -9.2372    0.0000 C   0  0
    9.1891   -6.4553    0.0000 C   0  0
    7.1004   -6.8540    0.0000 O   0  0
    8.5006  -10.0509    0.0000 O   0  0
    9.1729   -8.8408    0.0000 C   0  0
    9.1891   -5.6416    0.0000 C   0  0
    9.2332  -10.4288    0.0000 C   0  0
    9.9379   -9.9883    0.0000 C   0  0
    5.6978   -7.6469    0.0000 C   0  0
    8.5052   -5.2475    0.0000 O   0  0
    7.8167   -6.4553    0.0000 C   0  0
    5.6978   -9.2372    0.0000 C   0  0
    9.9264   -6.8332    0.0000 C   0  0
    9.8684   -5.2359    0.0000 C   0  0
    5.0000   -8.0340    0.0000 C   0  0
   10.6149   -6.4112    0.0000 C   0  0
    5.0000   -8.8408    0.0000 C   0  0
   10.6149   -5.5859    0.0000 C   0  0
  2  1  1  0
  3  1  1  0
  4  1  1  0
  5  2  1  0
  6  3  1  0
  7  6  1  0
  8  4  2  0
  9  2  1  0
 10  8  1  0
 11  3  2  0
 12  9  1  0
 13  9  2  0
 14 10  1  0
 15 12  1  0
 16 13  1  0
 17  6  2  0
 18 14  1  0
 19  8  1  0
 20  7  2  0
 21 10  2  0
 22 14  2  0
 23 17  1  0
 24 21  1  0
 25 23  2  0
 26 24  2  0
  5  7  1  0
 16 15  2  0
 20 25  1  0
 22 26  1  0
M  END
> <COMPOUND_ID>
DNDI1417548

$$$$

  SciTegic04051205032D

 26 29  0  0  0  0            999 V2000
    7.8535   -8.1526    0.0000 C   0  0
    7.4237   -7.4443    0.0000 N   0  0
    7.4237   -8.7679    0.0000 N   0  0
    6.5746   -7.7056    0.0000 C   0  0
    6.5746   -8.5479    0.0000 C   0  0
    7.6747   -6.6537    0.0000 C   0  0
    7.7228   -9.5586    0.0000 C   0  0
    6.3168   -6.1689    0.0000 C   0  0
    7.1074   -6.0383    0.0000 C   0  0
    8.6889   -8.1526    0.0000 N   0  0
    8.5376   -9.6824    0.0000 C   0  0
    5.6601   -5.6739    0.0000 O   0  0
    6.0073   -6.9596    0.0000 C   0  0
    5.0000   -6.1689    0.0000 C   0  0
    5.2166   -6.9218    0.0000 C   0  0
    8.8401  -10.4491    0.0000 C   0  0
    7.4237   -5.2475    0.0000 O   0  0
    5.8767   -8.9433    0.0000 C   0  0
    5.8767   -7.2690    0.0000 C   0  0
    9.0670   -9.0499    0.0000 C   0  0
    8.3382  -11.0885    0.0000 C   0  0
    9.6446  -10.5694    0.0000 C   0  0
    5.1823   -8.5479    0.0000 C   0  0
    5.1823   -7.6679    0.0000 C   0  0
    9.8715   -9.1805    0.0000 C   0  0
   10.1809   -9.9368    0.0000 C   0  0
  2  1  1  0
  3  1  1  0
  4  2  1  0
  5  3  1  0
  6  2  1  0
  7  3  1  0
  8  9  1  0
  9  6  1  0
 10  1  2  0
 11  7  1  0
 12  8  1  0
 13  8  2  0
 14 12  1  0
 15 13  1  0
 16 11  2  0
 17  9  1  0
 18  5  1  0
 19  4  1  0
 20 11  1  0
 21 16  1  0
 22 16  1  0
 23 18  2  0
 24 19  2  0
 25 20  2  0
 26 25  1  0
  5  4  2  0
 23 24  1  0
 22 26  2  0
 15 14  2  0
M  END
> <COMPOUND_ID>
DNDI1417549

$$$$

  SciTegic04051205032D

 26 29  0  0  0  0            999 V2000
    7.8519   -6.4734    0.0000 N   0  0
    7.8519   -7.3177    0.0000 C   0  0
    8.5961   -6.0731    0.0000 N   0  0
    7.1514   -6.0543    0.0000 C   0  0
    7.1202   -7.7242    0.0000 N   0  0
    9.2779   -6.5234    0.0000 C   0  0
    6.4447   -6.4734    0.0000 C   0  0
    8.5649   -7.7305    0.0000 C   0  0
    6.4197   -7.2990    0.0000 C   0  0
    9.2779   -7.3177    0.0000 C   0  0
    7.1390   -5.2475    0.0000 O   0  0
   10.0221   -6.0794    0.0000 N   0  0
   12.8991   -6.1294    0.0000 N   0  0
    5.7130   -6.0543    0.0000 C   0  0
    8.5649   -8.5561    0.0000 C   0  0
    9.9721   -7.7305    0.0000 C   0  0
   11.4544   -6.1169    0.0000 C   0  0
    5.7130   -7.7242    0.0000 C   0  0
   10.7726   -6.5234    0.0000 C   0  0
   12.1674   -6.5234    0.0000 C   0  0
   13.6246   -6.5297    0.0000 C   0  0
   12.8991   -5.3038    0.0000 C   0  0
    5.0000   -6.4547    0.0000 C   0  0
    9.2716   -8.9501    0.0000 C   0  0
    9.9471   -8.5748    0.0000 C   0  0
    5.0000   -7.2802    0.0000 C   0  0
  2  1  1  0
  3  1  1  0
  4  1  1  0
  5  2  2  0
  6  3  2  0
  7  4  1  0
  8  2  1  0
  9  7  2  0
 10  6  1  0
 11  4  2  0
 12  6  1  0
 13 20  1  0
 14  7  1  0
 15  8  1  0
 16 10  1  0
 17 19  1  0
 18  9  1  0
 19 12  1  0
 20 17  1  0
 21 13  1  0
 22 13  1  0
 23 14  2  0
 24 15  2  0
 25 16  2  0
 26 23  1  0
  5  9  1  0
 10  8  2  0
 18 26  2  0
 25 24  1  0
M  END
> <COMPOUND_ID>
DNDI1417550

$$$$

  SciTegic04051205032D

 26 29  0  0  0  0            999 V2000
   13.8731   -5.3775    0.0000 N   0  0
   12.5279   -6.1054    0.0000 C   0  0
    8.4000   -7.5571    0.0000 N   0  0
    9.0811   -6.4247    0.0000 C   0  0
    9.0811   -7.1740    0.0000 C   0  0
   12.5279   -5.3775    0.0000 C   0  0
    7.7359   -6.4247    0.0000 C   0  0
    7.7359   -7.1740    0.0000 C   0  0
   13.8731   -6.1054    0.0000 C   0  0
   13.2190   -6.5141    0.0000 C   0  0
    7.0831   -6.0586    0.0000 C   0  0
    7.0831   -7.5571    0.0000 C   0  0
   11.8638   -6.4630    0.0000 C   0  0
    6.4219   -6.4247    0.0000 C   0  0
   14.5883   -5.0000    0.0000 C   0  0
    9.7665   -6.0203    0.0000 C   0  0
   11.1586   -6.0203    0.0000 N   0  0
    6.4219   -7.1740    0.0000 C   0  0
    9.7665   -7.5940    0.0000 C   0  0
   14.6266   -6.5141    0.0000 C   0  0
   13.2190   -7.3102    0.0000 C   0  0
    5.6911   -6.0203    0.0000 O   0  0
   10.4718   -6.4247    0.0000 C   0  0
    5.0000   -6.4403    0.0000 C   0  0
   14.6266   -7.3726    0.0000 C   0  0
   13.9725   -7.7444    0.0000 C   0  0
  2  6  2  0
  3  5  1  0
  4 16  1  0
  5  4  2  0
  6  1  1  0
  7  4  1  0
  8  7  2  0
  9  1  1  0
 10  9  2  0
 11  7  1  0
 12  8  1  0
 13  2  1  0
 14 11  2  0
 15  1  1  0
 16 23  1  0
 17 13  1  0
 18 14  1  0
 19  5  1  0
 20  9  1  0
 21 10  1  0
 22 14  1  0
 23 17  1  0
 24 22  1  0
 25 20  2  0
 26 25  1  0
 10  2  1  0
 26 21  2  0
  8  3  1  0
 18 12  2  0
M  END
> <COMPOUND_ID>
DNDI1417551

$$$$

  SciTegic04051205032D

 26 28  0  0  0  0            999 V2000
    7.1412   -8.3078    0.0000 C   0  0
    7.1329   -6.6539    0.0000 C   0  0
    7.8495   -7.8912    0.0000 C   0  0
    6.4247   -7.8954    0.0000 C   0  0
    7.8495   -7.0705    0.0000 C   0  0
    6.4247   -7.0705    0.0000 C   0  0
    7.1412   -9.1326    0.0000 C   0  0
    8.5619  -10.7864    0.0000 N   0  0
    6.4122   -6.2540    0.0000 C   0  0
    7.8453   -6.2415    0.0000 C   0  0
    7.8495   -9.5492    0.0000 C   0  0
    8.5660   -8.3078    0.0000 C   0  0
    5.7082   -8.3161    0.0000 C   0  0
    5.7082   -6.6581    0.0000 C   0  0
    8.5619   -6.6497    0.0000 C   0  0
    7.8453  -10.3699    0.0000 C   0  0
    8.5494  -11.6072    0.0000 C   0  0
    9.2700  -10.3699    0.0000 C   0  0
    6.4122   -5.4291    0.0000 C   0  0
    7.8411   -5.4166    0.0000 C   0  0
    5.0000   -7.0705    0.0000 C   0  0
    5.0000   -7.9079    0.0000 C   0  0
    9.2867   -7.8870    0.0000 C   0  0
    9.2783   -7.0496    0.0000 C   0  0
    8.5452   -5.0000    0.0000 C   0  0
    5.6999   -5.0209    0.0000 C   0  0
  2  5  1  0
  3  1  1  0
  4  1  1  0
  5  3  2  0
  6  4  1  0
  7  1  2  0
  8 16  1  0
  9  2  1  0
 10  2  1  0
 11  7  1  0
 12  3  1  0
 13  4  2  0
 14  6  2  0
 15  5  1  0
 16 11  1  0
 17  8  1  0
 18  8  1  0
 19  9  1  0
 20 10  1  0
 21 22  2  0
 22 13  1  0
 23 12  2  0
 24 23  1  0
 25 20  1  0
 26 19  1  0
  6  2  1  0
 24 15  2  0
 21 14  1  0
M  END
> <COMPOUND_ID>
DNDI1417552

$$$$

  SciTegic04051205032D

 24 25  0  0  0  0            999 V2000
    8.1949   -5.7099    0.0000 C   0  0
    6.1495   -7.8636    0.0000 N   0  0
    6.9609   -7.8636    0.0000 C   0  0
    5.7438   -7.1401    0.0000 C   0  0
    7.3666   -5.7099    0.0000 N   0  0
    6.9609   -6.4301    0.0000 C   0  0
    8.6006   -6.4402    0.0000 N   0  0
    8.6006   -5.0000    0.0000 S   0  0
    6.1495   -6.4301    0.0000 C   0  0
    7.3666   -7.1401    0.0000 C   0  0
    9.4256   -6.4402    0.0000 C   0  0
   11.0619   -6.4402    0.0000 C   0  0
    9.8313   -7.1502    0.0000 C   0  0
    9.8448   -5.7099    0.0000 C   0  0
   10.6562   -7.1502    0.0000 C   0  0
   10.6562   -5.7099    0.0000 C   0  0
    6.5552   -8.5769    0.0000 C   0  0
    7.6777   -8.2693    0.0000 C   0  0
    5.0000   -7.5458    0.0000 C   0  0
    5.4497   -6.3591    0.0000 C   0  0
   11.8733   -6.4402    0.0000 C   0  0
   12.2790   -5.7099    0.0000 C   0  0
   13.1141   -5.7099    0.0000 C   0  0
   13.5198   -5.0000    0.0000 C   0  0
  2  4  1  0
  3 10  1  0
  4  9  1  0
  5  1  1  0
  6  5  1  0
  7  1  1  0
  8  1  2  0
  9  6  1  0
 10  6  1  0
 11  7  1  0
 12 15  2  0
 13 11  2  0
 14 11  1  0
 15 13  1  0
 16 14  2  0
 17  3  1  0
 18  3  1  0
 19  4  1  0
 20  4  1  0
 21 12  1  0
 22 21  1  0
 23 22  1  0
 24 23  1  0
 12 16  1  0
  2  3  1  0
M  END
> <COMPOUND_ID>
DNDI1417553

$$$$

  SciTegic04051205032D

 24 26  0  0  0  0            999 V2000
    7.8709   -7.4602    0.0000 C   0  0
    7.1585   -8.7049    0.0000 C   0  0
    7.1585   -7.8835    0.0000 N   0  0
    8.5876   -7.8751    0.0000 N   0  0
    7.8752   -9.1199    0.0000 N   0  0
    8.5918   -8.7049    0.0000 C   0  0
    7.8626   -6.6429    0.0000 N   0  0
    6.4418   -9.1199    0.0000 N   0  0
    7.1459   -6.2364    0.0000 C   0  0
    9.3085   -9.1156    0.0000 O   0  0
    5.7126   -5.4149    0.0000 C   0  0
    5.0000   -5.0125    0.0000 Cl  0  0
    6.4418   -9.9497    0.0000 C   0  0
    7.1333   -5.4149    0.0000 C   0  0
    6.4292   -6.6429    0.0000 C   0  0
    5.7126   -6.2447    0.0000 C   0  0
    6.4250   -5.0000    0.0000 C   0  0
   10.0252   -8.6924    0.0000 C   0  0
    5.7335  -10.3604    0.0000 C   0  0
    7.1585  -10.3604    0.0000 C   0  0
   10.7419   -9.1073    0.0000 C   0  0
    7.1585  -11.1902    0.0000 C   0  0
    5.7335  -11.1819    0.0000 C   0  0
    6.4418  -11.5968    0.0000 C   0  0
  2  3  2  0
  3  1  1  0
  4  1  2  0
  5  6  2  0
  6  4  1  0
  7  1  1  0
  8  2  1  0
  9  7  1  0
 10  6  1  0
 11 16  2  0
 12 11  1  0
 13  8  1  0
 14  9  1  0
 15  9  2  0
 16 15  1  0
 17 14  2  0
 18 10  1  0
 19 13  1  0
 20 13  1  0
 21 18  1  0
 22 20  1  0
 23 19  1  0
 24 22  1  0
  5  2  1  0
 11 17  1  0
 24 23  1  0
M  END
> <COMPOUND_ID>
DNDI1417554

$$$$

  SciTegic04051205032D

 23 25  0  0  0  0            999 V2000
    7.9859   -6.3623    0.0000 C   0  0
    7.2871   -5.0000    0.0000 S   0  0
    7.6101   -6.9054    0.0000 C   0  0
    7.9859   -5.5137    0.0000 C   0  0
    6.9495   -6.9054    0.0000 C   0  0
    6.4944   -5.5137    0.0000 C   0  0
    6.4944   -6.3623    0.0000 C   0  0
    8.7316   -6.7880    0.0000 C   0  0
    8.7316   -5.0851    0.0000 C   0  0
    7.9859   -7.6277    0.0000 O   0  0
    9.4774   -6.3623    0.0000 C   0  0
    6.1450   -9.2131    0.0000 N   0  0
    9.4774   -5.5137    0.0000 C   0  0
   10.1908   -6.7733    0.0000 Cl  0  0
    6.6882   -7.6893    0.0000 C   0  0
    5.7457   -6.7880    0.0000 C   0  0
    5.7457   -5.0851    0.0000 C   0  0
    5.8866   -7.8302    0.0000 C   0  0
    5.6136   -8.5907    0.0000 C   0  0
    6.9290   -9.0429    0.0000 C   0  0
    5.8720   -9.9677    0.0000 C   0  0
    5.0000   -6.3623    0.0000 C   0  0
    5.0000   -5.5137    0.0000 C   0  0
  2  4  1  0
  3  1  1  0
  4  1  2  0
  5  3  1  0
  6  2  1  0
  7  5  1  0
  8  1  1  0
  9  4  1  0
 10  3  1  0
 11  8  2  0
 12 19  1  0
 13  9  2  0
 14 11  1  0
 15  5  1  0
 16  7  2  0
 17  6  2  0
 18 15  1  0
 19 18  1  0
 20 12  1  0
 21 12  1  0
 22 16  1  0
 23 17  1  0
 13 11  1  0
  6  7  1  0
 23 22  2  0
M  END
> <COMPOUND_ID>
DNDI1417555

$$$$

  SciTegic04051205032D

 22 24  0  0  0  0            999 V2000
    9.9699   -6.2425    0.0000 C   0  0
    9.9699   -5.4083    0.0000 C   0  0
    9.2624   -6.6508    0.0000 C   0  0
   10.6985   -5.0000    0.0000 C   0  0
    6.4220   -6.6719    0.0000 C   0  0
   10.6985   -6.6579    0.0000 C   0  0
    7.8405   -6.6508    0.0000 S   0  0
    6.4220   -7.5132    0.0000 N   0  0
    7.1365   -6.2706    0.0000 C   0  0
    8.5409   -6.2425    0.0000 C   0  0
    9.2624   -7.4850    0.0000 O   0  0
   11.4130   -5.4083    0.0000 C   0  0
    9.2554   -5.0176    0.0000 Cl  0  0
    5.7215   -6.2706    0.0000 C   0  0
   11.4130   -6.2425    0.0000 C   0  0
   12.1170   -5.0106    0.0000 Cl  0  0
    6.4220   -5.0212    0.0000 C   0  0
    5.6969   -7.9250    0.0000 C   0  0
    7.1365   -5.4400    0.0000 C   0  0
    5.7215   -5.4400    0.0000 C   0  0
    5.0000   -6.6579    0.0000 C   0  0
    5.0000   -7.5202    0.0000 C   0  0
  2  1  1  0
  3  1  1  0
  4  2  2  0
  5  9  1  0
  6  1  2  0
  7 10  1  0
  8  5  1  0
  9  7  1  0
 10  3  1  0
 11  3  2  0
 12 15  2  0
 13  2  1  0
 14  5  2  0
 15  6  1  0
 16 12  1  0
 17 19  1  0
 18  8  2  0
 19  9  2  0
 20 17  2  0
 21 14  1  0
 22 18  1  0
 12  4  1  0
 20 14  1  0
 22 21  2  0
M  END
> <COMPOUND_ID>
DNDI1417556

$$$$

  SciTegic04051205032D

 26 28  0  0  0  0            999 V2000
    8.5191   -7.8014    0.0000 C   0  0
    8.5191   -8.6006    0.0000 C   0  0
    7.8165   -7.4003    0.0000 C   0  0
    7.8165   -9.0016    0.0000 N   0  0
    7.1410   -7.8014    0.0000 N   0  0
    7.1410   -8.6006    0.0000 C   0  0
    9.2941   -7.5481    0.0000 C   0  0
    9.2941   -8.8539    0.0000 C   0  0
    7.8165   -6.6013    0.0000 C   0  0
    6.4113   -9.0016    0.0000 C   0  0
    9.5625   -6.7460    0.0000 O   0  0
    9.5625   -9.6198    0.0000 O   0  0
   10.0329   -7.9100    0.0000 O   0  0
   10.0963   -8.6247    0.0000 O   0  0
    7.1139   -6.1640    0.0000 C   0  0
    8.5191   -6.2002    0.0000 C   0  0
    5.7087   -8.6006    0.0000 C   0  0
    6.3841   -9.8007    0.0000 C   0  0
   11.0672   -7.5964    0.0000 C   0  0
   11.0943   -8.8327    0.0000 C   0  0
    8.5191   -5.4010    0.0000 C   0  0
    7.1410   -5.3619    0.0000 C   0  0
    5.0000   -9.0016    0.0000 C   0  0
    5.6845  -10.2018    0.0000 C   0  0
    7.8165   -5.0000    0.0000 C   0  0
    5.0000   -9.8007    0.0000 C   0  0
  2  1  2  0
  3  1  1  0
  4  2  1  0
  5  3  2  0
  6  4  2  0
  7  1  1  0
  8  2  1  0
  9  3  1  0
 10  6  1  0
 11  7  2  0
 12  8  2  0
 13  7  1  0
 14  8  1  0
 15  9  1  0
 16  9  2  0
 17 10  2  0
 18 10  1  0
 19 13  1  0
 20 14  1  0
 21 16  1  0
 22 15  2  0
 23 17  1  0
 24 18  2  0
 25 21  2  0
 26 24  1  0
  6  5  1  0
 25 22  1  0
 26 23  2  0
M  END
> <COMPOUND_ID>
DNDI1417557

$$$$

  SciTegic04051205032D

 26 28  0  0  0  0            999 V2000
    7.1085   -6.2949    0.0000 C   0  0
    6.8513   -7.0942    0.0000 N   0  0
    7.8987   -6.0468    0.0000 C   0  0
    6.4470   -5.8126    0.0000 C   0  0
    6.0382   -7.0942    0.0000 N   0  0
   10.6963   -6.6394    0.0000 C   0  0
   12.7176   -7.5030    0.0000 N   0  0
   12.5430   -8.3070    0.0000 N   0  0
    5.7855   -6.2949    0.0000 C   0  0
    9.2998   -6.3454    0.0000 N   0  0
    8.5051   -6.5981    0.0000 N   0  0
   10.8755   -5.8263    0.0000 C   0  0
   11.3165   -7.1907    0.0000 C   0  0
    8.0641   -5.2475    0.0000 O   0  0
    9.9199   -6.8967    0.0000 C   0  0
   12.1020   -6.9380    0.0000 C   0  0
   11.6610   -5.5921    0.0000 C   0  0
   13.1586   -8.8582    0.0000 C   0  0
   12.2766   -6.1295    0.0000 C   0  0
   10.2553   -5.2980    0.0000 O   0  0
    5.0000   -6.0468    0.0000 C   0  0
   12.9840   -9.6576    0.0000 C   0  0
   13.9441   -8.6056    0.0000 C   0  0
   14.5551   -9.1568    0.0000 C   0  0
   13.5996  -10.2226    0.0000 C   0  0
   14.3851   -9.9608    0.0000 C   0  0
  2  1  1  0
  3  1  1  0
  4  1  2  0
  5  2  1  0
  6 15  1  0
  7 16  1  0
  8  7  2  0
  9  4  1  0
 10 11  1  0
 11  3  1  0
 12  6  2  0
 13  6  1  0
 14  3  2  0
 15 10  2  0
 16 13  2  0
 17 12  1  0
 18  8  1  0
 19 16  1  0
 20 12  1  0
 21  9  1  0
 22 18  1  0
 23 18  2  0
 24 23  1  0
 25 22  2  0
 26 24  2  0
  5  9  2  0
 17 19  2  0
 26 25  1  0
M  END
> <COMPOUND_ID>
DNDI1417558

$$$$

  SciTegic04051205032D

 24 25  0  0  0  0            999 V2000
    9.0312   -9.8828    0.0000 C   0  0
    8.7700  -10.6550    0.0000 C   0  0  2  0  0  0
    9.8602   -9.8828    0.0000 C   0  0
    7.9600  -10.8140    0.0000 N   0  0
    7.4263  -10.2121    0.0000 C   0  0
   10.1062  -10.6550    0.0000 S   0  0
    8.5618   -9.2015    0.0000 N   0  0
    9.4248  -11.1395    0.0000 C   0  0
   10.7421   -6.4156    0.0000 C   0  0
    7.6874   -9.4286    0.0000 O   0  0
    6.5973  -10.3825    0.0000 C   0  0
   10.3598   -9.2318    0.0000 C   0  0
   11.5597   -6.5330    0.0000 O   0  0
    8.8041   -8.3687    0.0000 O   0  0
   10.4393   -5.6359    0.0000 O   0  0
   10.2424   -7.0515    0.0000 C   0  0
   10.0305   -8.4748    0.0000 C   0  0
    6.0334   -9.7693    0.0000 C   0  0
    6.3400  -11.1547    0.0000 C   0  0
   10.9692   -5.0000    0.0000 C   0  0
   10.5490   -7.8237    0.0000 C   0  0
    5.2460   -9.9510    0.0000 C   0  0
    5.5526  -11.3477    0.0000 C   0  0
    5.0000  -10.7459    0.0000 C   0  0
  2  1  1  0
  3  1  1  0
  2  4  1  1
  5  4  1  0
  6  3  1  0
  7  1  2  0
  8  2  1  0
  9 16  1  0
 10  5  2  0
 11  5  1  0
 12  3  2  0
 13  9  2  0
 14  7  1  0
 15  9  1  0
 16 21  1  0
 17 12  1  0
 18 11  1  0
 19 11  2  0
 20 15  1  0
 21 17  1  0
 22 18  2  0
 23 19  1  0
 24 23  2  0
  6  8  1  0
 22 24  1  0
M  END
> <COMPOUND_ID>
DNDI1417559

$$$$

  SciTegic04051205032D

 25 27  0  0  0  0            999 V2000
   10.0358   -8.7056    0.0000 C   0  0
   10.0358   -7.8830    0.0000 C   0  0
    9.3244   -9.1058    0.0000 N   0  0
    9.3244   -7.4828    0.0000 C   0  0
    8.6129   -8.7056    0.0000 C   0  0
    8.6129   -7.8830    0.0000 C   0  0
   10.7621   -9.1354    0.0000 S   0  3
   10.7473   -7.4568    0.0000 C   0  0
   11.4736   -7.0270    0.0000 N   0  0
    7.9014   -9.1058    0.0000 C   0  0
    9.3244   -6.6268    0.0000 C   0  0
   11.5070   -8.7501    0.0000 O   0  5
    7.8829   -9.9358    0.0000 C   0  0
    7.1900   -8.6834    0.0000 C   0  0
    6.4378   -9.9062    0.0000 C   0  0
    6.4785   -9.0836    0.0000 C   0  0
    7.1715  -10.3360    0.0000 C   0  0
   10.7733   -9.9173    0.0000 C   0  0
    5.7041  -10.3064    0.0000 O   0  0
    8.6129   -6.2266    0.0000 C   0  0
   10.0358   -6.2266    0.0000 C   0  0
    5.0000   -9.8840    0.0000 C   0  0
    8.6129   -5.3706    0.0000 C   0  0
   10.0358   -5.4002    0.0000 C   0  0
    9.3244   -5.0000    0.0000 C   0  0
  2  1  2  0
  3  1  1  0
  4  2  1  0
  5  3  2  0
  6  5  1  0
  7  1  1  0
  8  2  1  0
  9  8  3  0
 10  5  1  0
 11  4  1  0
 12  7  1  0
 13 10  2  0
 14 10  1  0
 15 16  1  0
 16 14  2  0
 17 13  1  0
 18  7  1  0
 19 15  1  0
 20 11  2  0
 21 11  1  0
 22 19  1  0
 23 20  1  0
 24 21  2  0
 25 24  1  0
  4  6  2  0
 15 17  2  0
 23 25  2  0
M  CHG  2   7   1  12  -1
M  END
> <COMPOUND_ID>
DNDI1417560

$$$$

  SciTegic04051205032D

 25 28  0  0  0  0            999 V2000
    6.6274   -5.8238    0.0000 C   0  0
   10.8881   -5.8009    0.0000 N   0  0
   11.5121   -6.3587    0.0000 C   0  0
    6.6019   -5.0000    0.0000 C   0  0
    5.8901   -5.4228    0.0000 C   0  0
   10.1789   -6.2224    0.0000 C   0  0
    7.3328   -6.2224    0.0000 C   0  0
   10.3545   -7.0222    0.0000 S   0  0
   11.1797   -7.0871    0.0000 C   0  0
    6.2224   -6.5573    0.0000 C   0  0
    9.4670   -5.8009    0.0000 C   0  0
   12.3334   -6.2874    0.0000 C   0  0
    7.3787   -7.0450    0.0000 O   0  0
    8.0459   -5.8009    0.0000 N   0  0
    8.7578   -6.2224    0.0000 C   0  0
    6.6478   -7.2437    0.0000 C   0  0
    5.4049   -6.5802    0.0000 C   0  0
   12.8224   -6.9533    0.0000 C   0  0
   12.6887   -5.5335    0.0000 C   0  0
    5.0000   -7.3086    0.0000 C   0  0
   13.6475   -6.8668    0.0000 C   0  0
   13.4909   -5.4457    0.0000 C   0  0
    6.2453   -7.9988    0.0000 C   0  0
    5.4253   -7.9988    0.0000 C   0  0
   13.9824   -6.1117    0.0000 C   0  0
  2  6  2  0
  3  2  1  0
  4  1  1  0
  5  1  1  0
  6 11  1  0
  7  1  1  0
  8  6  1  0
  9  8  1  0
 10  1  1  0
 11 15  1  0
 12  3  1  0
 13  7  2  0
 14  7  1  0
 15 14  1  0
 16 10  2  0
 17 10  1  0
 18 12  2  0
 19 12  1  0
 20 17  2  0
 21 18  1  0
 22 19  2  0
 23 16  1  0
 24 20  1  0
 25 22  1  0
  5  4  1  0
 23 24  2  0
  3  9  2  0
 21 25  2  0
M  END
> <COMPOUND_ID>
DNDI1417561

$$$$

  SciTegic04051205032D

 25 27  0  0  0  0            999 V2000
    7.8629   -7.8817    0.0000 C   0  0
    6.4518   -7.8817    0.0000 C   0  0
    7.1589   -9.1114    0.0000 N   0  0
    7.8629   -8.7077    0.0000 C   0  0
    6.4518   -8.7077    0.0000 C   0  0
    7.1589   -7.4593    0.0000 C   0  0
    8.5857   -7.4468    0.0000 C   0  0
    5.7228   -7.4468    0.0000 C   0  0
    9.3147   -7.0275    0.0000 N   0  0
    5.0000   -7.0275    0.0000 N   0  0
    8.5857   -9.1301    0.0000 S   0  0
    7.1589   -6.6520    0.0000 C   0  0
    5.7228   -9.1301    0.0000 N   0  0
    9.3147   -8.7077    0.0000 C   0  0
   10.0313   -9.1301    0.0000 C   0  0
    6.4518   -6.2296    0.0000 C   0  0
    7.8629   -6.2296    0.0000 C   0  0
   10.0313   -9.9624    0.0000 C   0  0
   10.7415   -8.7327    0.0000 C   0  0
    7.8629   -5.4130    0.0000 C   0  0
    6.4518   -5.4130    0.0000 C   0  0
   11.4455   -9.1301    0.0000 C   0  0
   10.7415  -10.3598    0.0000 C   0  0
    7.1589   -5.0000    0.0000 C   0  0
   11.4455   -9.9624    0.0000 C   0  0
  2  6  2  0
  3  4  1  0
  4  1  2  0
  5  2  1  0
  6  1  1  0
  7  1  1  0
  8  2  1  0
  9  7  3  0
 10  8  3  0
 11  4  1  0
 12  6  1  0
 13  5  1  0
 14 11  1  0
 15 14  1  0
 16 12  1  0
 17 12  1  0
 18 15  2  0
 19 15  1  0
 20 17  1  0
 21 16  1  0
 22 19  2  0
 23 18  1  0
 24 20  1  0
 25 22  1  0
  3  5  2  0
 24 21  1  0
 23 25  2  0
M  END
> <COMPOUND_ID>
DNDI1417562

$$$$

  SciTegic04051205032D

 26 29  0  0  0  0            999 V2000
    6.6460   -7.1803    0.0000 N   0  0
    7.4238   -6.9210    0.0000 C   0  0
    7.4238   -6.0933    0.0000 C   0  0
    6.1713   -6.5025    0.0000 C   0  0
    6.6460   -5.8434    0.0000 C   0  0
    6.3837   -7.9674    0.0000 C   0  0
    6.9365   -8.5921    0.0000 C   0  0
    8.1485   -7.3302    0.0000 C   0  0
    8.1485   -5.6872    0.0000 C   0  0
    8.0173   -7.6363    0.0000 N   0  0
    5.3436   -6.4213    0.0000 C   0  0
    6.3025   -5.0875    0.0000 C   0  0
    6.6804   -9.3698    0.0000 O   0  0
    9.8882   -6.5118    0.0000 C   0  0
    7.7580   -8.4234    0.0000 C   0  0
    8.8200   -7.4582    0.0000 C   0  0
    9.0824   -6.6805    0.0000 C   0  0
   10.1506   -5.7309    0.0000 C   0  0
   10.4411   -7.1241    0.0000 C   0  0
    8.8512   -6.9303    0.0000 C   0  0
    8.8512   -6.0933    0.0000 C   0  0
    5.4779   -5.0000    0.0000 C   0  0
    5.0000   -5.6716    0.0000 C   0  0
   10.9596   -5.5592    0.0000 C   0  0
   11.2344   -6.9554    0.0000 C   0  0
   11.5124   -6.1683    0.0000 C   0  0
  2  1  1  0
  3  2  2  0
  4  1  1  0
  5  4  2  0
  6  1  1  0
  7  6  1  0
  8  2  1  0
  9  3  1  0
 10 15  1  0
 11  4  1  0
 12  5  1  0
 13  7  1  0
 14 17  1  0
 15  7  1  0
 16 10  1  0
 17 16  1  0
 18 14  1  0
 19 14  2  0
 20  8  1  0
 21 20  1  0
 22 23  1  0
 23 11  2  0
 24 18  2  0
 25 19  1  0
 26 25  2  0
  3  5  1  0
 21  9  1  0
 22 12  2  0
 26 24  1  0
M  END
> <COMPOUND_ID>
DNDI1417563

$$$$

  SciTegic04051205032D

 24 25  0  0  0  0            999 V2000
    7.8379   -6.5164    0.0000 C   0  0
    8.5474   -6.9348    0.0000 C   0  0
    7.1285   -6.9348    0.0000 C   0  0
   10.0437   -6.8848    0.0000 N   0  0
    7.8379   -5.6977    0.0000 C   0  0
    9.3342   -6.4845    0.0000 O   0  0
    6.4190   -6.5027    0.0000 C   0  0
   10.7531   -6.4845    0.0000 C   0  0
    8.5338   -7.8262    0.0000 O   0  0
    6.4190   -5.6841    0.0000 C   0  0
   11.4626   -6.8848    0.0000 C   0  0
   10.7531   -5.6659    0.0000 N   0  0
    7.1421   -5.2975    0.0000 C   0  0
    7.1285   -7.7534    0.0000 O   0  0
   12.1721   -6.4845    0.0000 C   0  0
   13.5911   -5.6659    0.0000 C   0  0
   14.3006   -5.2475    0.0000 Cl  0  0
   12.8816   -5.2475    0.0000 C   0  0
   13.5911   -6.4845    0.0000 C   0  0
   12.1721   -5.6659    0.0000 C   0  0
   12.8816   -6.8848    0.0000 C   0  0
    5.7095   -5.2748    0.0000 O   0  0
    6.4053   -8.1400    0.0000 C   0  0
    5.0000   -5.6795    0.0000 C   0  0
  2  1  1  0
  3  1  1  0
  4  6  1  0
  5  1  2  0
  6  2  1  0
  7  3  2  0
  8  4  2  0
  9  2  2  0
 10 13  2  0
 11  8  1  0
 12  8  1  0
 13  5  1  0
 14  3  1  0
 15 11  1  0
 16 19  1  0
 17 16  1  0
 18 20  1  0
 19 21  2  0
 20 15  2  0
 21 15  1  0
 22 10  1  0
 23 14  1  0
 24 22  1  0
  7 10  1  0
 18 16  2  0
M  END
> <COMPOUND_ID>
DNDI1417564

$$$$

  SciTegic04051205032D

 24 26  0  0  0  0            999 V2000
    7.8646   -7.0694    0.0000 C   0  0
    6.4364   -7.0694    0.0000 C   0  0
    7.1484   -7.4774    0.0000 C   0  0
    6.4364   -6.2533    0.0000 C   0  0
    9.2969   -9.5384    0.0000 C   0  0
    8.5849   -8.3101    0.0000 N   0  0
    7.1484   -5.8328    0.0000 C   0  0
   10.0005   -9.9589    0.0000 C   0  0
    7.8646   -6.2408    0.0000 C   0  0
    8.5766   -7.4774    0.0000 C   0  0
    9.2969   -8.7098    0.0000 C   0  0
    5.7162   -7.4774    0.0000 N   0  0
   10.7250   -9.5509    0.0000 O   0  0
    7.1484   -5.0000    0.0000 Cl  0  0
    7.1484   -8.3101    0.0000 O   0  0
   10.0005  -10.7750    0.0000 O   0  0
    7.8646   -8.7140    0.0000 C   0  0
    8.5766   -9.9506    0.0000 C   0  0
    5.7287   -5.8328    0.0000 C   0  0
    7.8646   -9.5384    0.0000 C   0  0
    5.0000   -7.0694    0.0000 C   0  0
    9.2969  -11.1872    0.0000 C   0  0
    5.0042   -6.2408    0.0000 C   0  0
    9.2844  -12.0116    0.0000 C   0  0
  2  3  1  0
  3  1  2  0
  4  7  1  0
  5 11  1  0
  6 10  1  0
  7  9  2  0
  8  5  1  0
  9  1  1  0
 10  1  1  0
 11  6  1  0
 12  2  1  0
 13  8  2  0
 14  7  1  0
 15  3  1  0
 16  8  1  0
 17  6  1  0
 18 20  1  0
 19  4  1  0
 20 17  1  0
 21 12  2  0
 22 16  1  0
 23 19  2  0
 24 22  1  0
  4  2  2  0
 23 21  1  0
 18  5  1  0
M  END
> <COMPOUND_ID>
DNDI1417565

$$$$

  SciTegic04051205032D

 23 25  0  0  0  0            999 V2000
    7.6885   -7.4153    0.0000 C   0  0
    7.2404   -8.0765    0.0000 S   0  0
    7.2477   -6.7686    0.0000 C   0  0
    8.5265   -7.3935    0.0000 C   0  0
    6.4338   -7.0204    0.0000 C   0  0
    6.4581   -7.8367    0.0000 C   0  0
    8.9359   -8.1128    0.0000 N   0  0
    9.8321   -8.1128    0.0000 N   0  0
   10.2245   -7.3838    0.0000 C   0  0
   10.1978   -5.9717    0.0000 C   0  0
   11.4548   -6.6692    0.0000 C   0  0
    9.8224   -6.6910    0.0000 C   0  0
    8.9359   -6.7055    0.0000 O   0  0
    7.5093   -5.9620    0.0000 Cl  0  0
    9.7667   -5.2475    0.0000 O   0  0
   11.0552   -7.3717    0.0000 C   0  0
   11.0334   -5.9620    0.0000 C   0  0
    5.7121   -6.6160    0.0000 C   0  0
    5.7194   -8.2460    0.0000 C   0  0
   12.1330   -6.1751    0.0000 C   0  0
   12.0338   -7.2263    0.0000 C   0  0
    5.0145   -6.9986    0.0000 C   0  0
    5.0000   -7.8149    0.0000 C   0  0
  2  1  1  0
  3  1  2  0
  4  1  1  0
  5  3  1  0
  6  2  1  0
  7  4  1  0
  8  7  1  0
  9  8  2  0
 10 12  1  0
 11 16  1  0
 12  9  1  0
 13  4  2  0
 14  3  1  0
 15 10  2  0
 16  9  1  0
 17 10  1  0
 18  5  1  0
 19  6  1  0
 20 11  1  0
 21 11  1  0
 22 18  2  0
 23 19  2  0
  6  5  2  0
 23 22  1  0
 17 11  1  0
M  END
> <COMPOUND_ID>
DNDI1417566

$$$$

  SciTegic04051205032D

 21 23  0  0  0  0            999 V2000
    8.9556   -8.0305    0.0000 C   0  0
    8.9556   -8.7575    0.0000 N   0  0
    7.6930   -8.0305    0.0000 C   0  0
    8.3243   -9.1211    0.0000 N   0  0
    9.6213   -7.6522    0.0000 C   0  0
    7.6930   -8.7575    0.0000 C   0  0
    7.4646   -5.6601    0.0000 C   0  0
    7.4572   -6.4928    0.0000 C   0  0
    8.9335   -6.4928    0.0000 N   0  0
    6.7400   -5.2597    0.0000 C   0  0
    9.6213   -6.8809    0.0000 N   0  0
   10.2870   -8.0379    0.0000 O   0  0
    8.2260   -6.9129    0.0000 C   0  0
    6.7867   -6.9350    0.0000 C   0  0
    6.0399   -5.6896    0.0000 C   0  0
    7.0789   -7.6694    0.0000 C   0  0
    8.1597   -5.2475    0.0000 O   0  0
    6.0399   -6.5149    0.0000 C   0  0
    5.3300   -5.2818    0.0000 Br  0  0
    6.4477   -8.7575    0.0000 C   0  0
    6.4477   -8.0305    0.0000 C   0  0
  2  1  2  0
  3  1  1  0
  4  2  1  0
  5  1  1  0
  6  3  2  0
  7  8  1  0
  8 13  1  0
  9 11  1  0
 10  7  2  0
 11  5  1  0
 12  5  2  0
 13  9  2  0
 14  8  2  0
 15 18  2  0
 16  3  1  0
 17  7  1  0
 18 14  1  0
 19 15  1  0
 20  6  1  0
 21 16  1  0
  4  6  1  0
 21 20  1  0
 15 10  1  0
M  END
> <COMPOUND_ID>
DNDI1417567

$$$$

  SciTegic04051205032D

 26 28  0  0  0  0            999 V2000
    8.5534   -8.5815    0.0000 C   0  0
    6.4840   -7.8535    0.0000 C   0  0
    7.3234   -7.8535    0.0000 N   0  0
    7.7317   -8.5815    0.0000 C   0  0
    8.9814   -7.8535    0.0000 C   0  0
    6.0674   -7.1339    0.0000 C   0  0
   10.2186   -7.1339    0.0000 N   0  0
    5.2489   -7.1193    0.0000 O   0  0
   11.4496   -6.4361    0.0000 C   0  0
    9.8020   -7.8535    0.0000 N   0  0
    6.0674   -8.5690    0.0000 O   0  0
    6.3310   -6.3611    0.0000 C   0  0
    8.5534   -7.1339    0.0000 O   0  0
    5.0000   -6.3455    0.0000 C   0  0
   12.2765   -6.4361    0.0000 C   0  0
    5.6582   -5.8862    0.0000 C   0  0
   11.0403   -7.1339    0.0000 C   0  0
   12.6993   -7.1526    0.0000 O   0  0
    8.9626   -9.2865    0.0000 C   0  0
    7.3234   -9.2865    0.0000 C   0  0
   11.0403   -5.7206    0.0000 C   0  0
   12.6868   -5.7206    0.0000 C   0  0
    8.5534  -10.0176    0.0000 C   0  0
    7.7317  -10.0020    0.0000 C   0  0
   11.4496   -5.0000    0.0000 C   0  0
   12.2765   -5.0000    0.0000 C   0  0
  2  3  1  0
  3  4  1  0
  4  1  2  0
  5  1  1  0
  6  2  1  0
  7 10  1  0
  8  6  1  0
  9 17  1  0
 10  5  1  0
 11  2  2  0
 12  6  2  0
 13  5  2  0
 14  8  1  0
 15  9  1  0
 16 12  1  0
 17  7  2  0
 18 15  1  0
 19  1  1  0
 20  4  1  0
 21  9  2  0
 22 15  2  0
 23 19  2  0
 24 23  1  0
 25 21  1  0
 26 25  2  0
 24 20  2  0
 14 16  2  0
 26 22  1  0
M  END
> <COMPOUND_ID>
DNDI1417568

$$$$

  SciTegic04051205032D

 25 26  0  0  0  0            999 V2000
    7.8158   -6.8850    0.0000 N   0  0
    7.0793   -5.6765    0.0000 N   0  0
    7.7940   -6.0612    0.0000 C   0  0
    6.4000   -6.9096    0.0000 N   0  0
    7.1120   -7.3324    0.0000 C   0  0
    6.3864   -6.0885    0.0000 C   0  0
   12.7344   -6.6095    0.0000 C   0  0
   12.9090   -7.4143    0.0000 C   0  0
   11.9433   -6.3613    0.0000 C   0  0
    8.4896   -5.6411    0.0000 N   0  0
    8.5660   -7.2697    0.0000 O   0  0
   13.7137   -7.6871    0.0000 O   0  0
    5.6798   -5.6847    0.0000 N   0  0
    6.5964   -7.9680    0.0000 C   0  0
    7.6631   -7.9462    0.0000 C   0  0
   12.3252   -7.9626    0.0000 O   0  0
   13.3400   -6.0503    0.0000 C   0  0
   11.3131   -6.9096    0.0000 O   0  0
    9.9355   -7.0841    0.0000 C   0  0
    9.1907   -6.7104    0.0000 C   0  0
   10.5629   -6.5358    0.0000 C   0  0
   11.7741   -5.5537    0.0000 C   0  0
   12.6580   -8.7155    0.0000 C   0  0
   13.1735   -5.2646    0.0000 C   0  0
   12.3934   -5.0000    0.0000 C   0  0
  2  3  2  0
  3  1  1  0
  4  5  1  0
  5  1  1  0
  6  2  1  0
  7  9  1  0
  8  7  1  0
  9 18  1  0
 10  3  1  0
 11  1  1  0
 12  8  2  0
 13  6  1  0
 14  5  1  0
 15  5  1  0
 16  8  1  0
 17  7  2  0
 18 21  1  0
 19 20  1  0
 20 11  1  0
 21 19  1  0
 22  9  2  0
 23 16  1  0
 24 25  2  0
 25 22  1  0
  6  4  2  0
 24 17  1  0
M  END
> <COMPOUND_ID>
DNDI1417569

$$$$

  SciTegic04051205032D

 26 29  0  0  0  0            999 V2000
    7.8607  -10.7306    0.0000 C   0  0
    7.1386  -11.1657    0.0000 C   0  0
    7.8607  -12.4109    0.0000 N   0  0
    7.1386  -11.9851    0.0000 C   0  0
    7.8560   -6.6525    0.0000 N   0  0
    7.8607   -9.9159    0.0000 N   0  0
    8.5643  -11.1519    0.0000 C   0  0
    7.8560   -7.4672    0.0000 C   0  0
    8.5828  -11.9851    0.0000 C   0  0
    6.4303  -10.7630    0.0000 C   0  0
    6.4303  -12.4109    0.0000 C   0  0
    7.8421   -5.0000    0.0000 O   0  0
    8.5550   -7.8746    0.0000 C   0  0
    7.1386   -7.8746    0.0000 C   0  0
    7.8607   -9.1105    0.0000 C   0  0
    5.7082  -11.1657    0.0000 C   0  0
    8.5550   -8.7078    0.0000 C   0  0
    7.1386   -8.7078    0.0000 C   0  0
    5.7082  -11.9851    0.0000 C   0  0
    7.1339   -6.2451    0.0000 C   0  0
    8.5550   -6.2451    0.0000 C   0  0
    5.0000  -10.7630    0.0000 O   0  0
    7.1339   -5.4305    0.0000 C   0  0
    8.5412   -5.3425    0.0000 C   0  0
    9.3049  -12.3970    0.0000 C   0  0
    5.0000   -9.9298    0.0000 C   0  0
  2  1  1  0
  3  9  2  0
  4  2  1  0
  5  8  1  0
  6  1  1  0
  7  1  2  0
  8 14  2  0
  9  7  1  0
 10  2  2  0
 11  4  2  0
 12 24  1  0
 13 17  2  0
 14 18  1  0
 15  6  1  0
 16 10  1  0
 17 15  1  0
 18 15  2  0
 19 16  2  0
 20  5  1  0
 21  5  1  0
 22 16  1  0
 23 20  1  0
 24 21  1  0
 25  9  1  0
 26 22  1  0
  3  4  1  0
  8 13  1  0
 11 19  1  0
 23 12  1  0
M  END
> <COMPOUND_ID>
DNDI1417570

$$$$

  SciTegic04051205032D

 23 26  0  0  0  0            999 V2000
    8.2297   -7.2552    0.0000 N   0  0
    7.6117   -8.2758    0.0000 N   0  0
    8.2297   -7.8948    0.0000 C   0  0
    6.9998   -7.8652    0.0000 C   0  0
    6.9998   -7.2552    0.0000 N   0  0
    8.8397   -6.8900    0.0000 C   0  0
    8.8397   -6.1240    0.0000 C   0  0
    9.5089   -5.7430    0.0000 O   0  0
    9.5089   -7.2690    0.0000 C   0  0
   10.1584   -6.1240    0.0000 C   0  0
    6.3306   -8.2442    0.0000 C   0  0
   10.1584   -6.8900    0.0000 C   0  0
   10.1584   -5.2475    0.0000 O   0  0
    9.0094   -8.3271    0.0000 S   0  0
    5.6455   -7.8652    0.0000 S   0  0
    8.8397   -5.2475    0.0000 C   0  0
    6.3306   -9.0121    0.0000 C   0  0
    7.6117   -9.0497    0.0000 C   0  0
    5.0000   -8.2679    0.0000 C   0  0
   10.8138   -7.2848    0.0000 O   0  0
    5.0000   -9.0121    0.0000 C   0  0
    8.2948   -9.4287    0.0000 C   0  0
    8.9739   -9.0418    0.0000 C   0  0
  2  3  1  0
  3  1  1  0
  4  5  2  0
  5  1  1  0
  6  1  1  0
  7  6  1  0
  8  7  1  0
  9  6  1  0
 10 12  1  0
 11  4  1  0
 12  9  1  0
 13 16  1  0
 14  3  2  0
 15 11  1  0
 16  7  1  0
 17 11  2  0
 18  2  1  0
 19 15  1  0
 20 12  2  0
 21 17  1  0
 22 18  1  0
 23 22  2  0
  2  4  1  0
 10  8  1  0
 13 10  1  0
 19 21  2  0
M  END
> <COMPOUND_ID>
DNDI1417571

$$$$

  SciTegic04051205032D

 24 25  0  0  0  0            999 V2000
    6.1227   -7.5042    0.0000 C   0  0
    6.8281   -8.7438    0.0000 C   0  0
    6.5401   -6.2270    0.0000 C   0  0
    5.4508   -7.0117    0.0000 N   0  0
    7.5418   -9.9791    0.0000 C   0  0
    8.2555   -8.7312    0.0000 C   0  0
    7.5418   -8.3306    0.0000 N   0  0
    6.8281   -9.5660    0.0000 N   0  0
    8.2555   -9.5660    0.0000 N   0  0
    6.7905   -7.0242    0.0000 S   0  0
    5.7095   -6.2228    0.0000 C   0  0
    6.1227   -8.3306    0.0000 N   0  0
    7.2621   -5.8222    0.0000 C   0  0
    8.9650   -8.3138    0.0000 N   0  0
    7.5418  -10.7972    0.0000 N   0  0
    7.2621   -5.0000    0.0000 O   0  0
    5.0000   -5.8222    0.0000 C   0  0
    8.9567   -7.4917    0.0000 C   0  0
    6.8281  -11.2104    0.0000 C   0  0
    7.9800   -6.2228    0.0000 C   0  0
    6.1227  -10.7847    0.0000 C   0  0
    8.2430   -7.0785    0.0000 C   0  0
    6.8239  -12.0326    0.0000 C   0  0
    9.6787   -7.0743    0.0000 C   0  0
  2 12  1  0
  3 10  1  0
  4  1  2  0
  5  8  1  0
  6  7  2  0
  7  2  1  0
  8  2  2  0
  9  5  2  0
 10  1  1  0
 11  4  1  0
 12  1  1  0
 13  3  1  0
 14  6  1  0
 15  5  1  0
 16 13  2  0
 17 11  1  0
 18 14  1  0
 19 15  1  0
 20 13  1  0
 21 19  1  0
 22 18  1  0
 23 19  1  0
 24 18  1  0
  3 11  2  0
  6  9  1  0
M  END
> <COMPOUND_ID>
DNDI1417572

$$$$

  SciTegic04051205032D

 24 25  0  0  0  0            999 V2000
    7.0173   -6.7580    0.0000 C   0  0
    6.5983   -6.0484    0.0000 C   0  0
    6.4598   -7.3763    0.0000 N   0  0
    5.8110   -6.2274    0.0000 C   0  0
    5.7197   -7.0384    0.0000 N   0  0
    7.8283   -6.7580    0.0000 C   0  0
   11.5587   -8.9273    0.0000 C   0  0
   11.9811   -8.2042    0.0000 C   0  0
   10.7241   -8.9273    0.0000 C   0  0
   10.3186   -8.2042    0.0000 C   0  0
    9.0616   -7.4878    0.0000 N   0  0
    8.2506   -7.4878    0.0000 N   0  0
   12.8022   -8.2042    0.0000 N   0  0
    8.2506   -6.0484    0.0000 O   0  0
    6.9261   -5.2475    0.0000 Cl  0  0
   10.7241   -7.4878    0.0000 C   0  0
   11.5587   -7.4878    0.0000 C   0  0
    9.4908   -8.2042    0.0000 C   0  0
   10.3119   -9.6335    0.0000 O   0  0
    5.0000   -7.4439    0.0000 C   0  0
   13.2077   -7.4980    0.0000 C   0  0
   13.2111   -8.9070    0.0000 C   0  0
   14.0187   -7.4980    0.0000 C   0  0
   12.8157   -9.6234    0.0000 C   0  0
  2  1  1  0
  3  1  2  0
  4  2  2  0
  5  3  1  0
  6  1  1  0
  7  9  1  0
  8 17  1  0
  9 10  2  0
 10 18  1  0
 11 12  1  0
 12  6  1  0
 13  8  1  0
 14  6  2  0
 15  2  1  0
 16 10  1  0
 17 16  2  0
 18 11  2  0
 19  9  1  0
 20  5  1  0
 21 13  1  0
 22 13  1  0
 23 21  1  0
 24 22  1  0
  4  5  1  0
  7  8  2  0
M  END
> <COMPOUND_ID>
DNDI1417573

$$$$

  SciTegic04051205032D

 24 27  0  0  0  0            999 V2000
    7.8610   -8.7272    0.0000 C   0  0
    7.8610   -7.8984    0.0000 C   0  0
    7.1406   -9.1353    0.0000 N   0  0
    7.1406   -7.4778    0.0000 C   0  0
    8.5648   -9.1353    0.0000 C   0  0
    6.4284   -7.8984    0.0000 C   0  0
    6.4284   -8.7272    0.0000 C   0  0
    9.2894   -8.7272    0.0000 C   0  0
    9.2894   -7.9026    0.0000 N   0  0
    8.5773   -7.4861    0.0000 C   0  0
    8.5606   -9.9640    0.0000 C   0  0
    7.1406   -6.6533    0.0000 S   0  0
    8.5606  -10.7844    0.0000 N   0  0
    9.9974   -9.1478    0.0000 Cl  0  0
    7.8485   -6.2368    0.0000 C   0  0
    5.7163   -7.4861    0.0000 C   0  0
    5.7163   -9.1353    0.0000 C   0  0
    8.5648   -6.6491    0.0000 C   0  0
    7.8402   -5.4164    0.0000 C   0  0
    5.0000   -7.8984    0.0000 C   0  0
    5.0000   -8.7272    0.0000 C   0  0
    8.5481   -5.0000    0.0000 C   0  0
    9.2769   -6.2285    0.0000 C   0  0
    9.2644   -5.3997    0.0000 C   0  0
  2  1  2  0
  3  1  1  0
  4  2  1  0
  5  1  1  0
  6  7  1  0
  7  3  1  0
  8  5  2  0
  9  8  1  0
 10  2  1  0
 11  5  1  0
 12  4  1  0
 13 11  3  0
 14  8  1  0
 15 12  1  0
 16  6  2  0
 17  7  2  0
 18 15  2  0
 19 15  1  0
 20 21  2  0
 21 17  1  0
 22 19  2  0
 23 18  1  0
 24 22  1  0
 10  9  2  0
  4  6  1  0
 20 16  1  0
 23 24  2  0
M  END
> <COMPOUND_ID>
DNDI1417574

$$$$

  SciTegic04051205032D

 23 25  0  0  0  0            999 V2000
    7.8601   -7.4853    0.0000 O   0  0
    7.8601   -6.6610    0.0000 C   0  0
    8.5720   -6.2364    0.0000 C   0  0
    7.1399   -6.2489    0.0000 C   0  0
    7.8476   -9.1215    0.0000 N   0  0
    7.1399   -5.4121    0.0000 C   0  0
    9.2839   -6.6486    0.0000 C   0  0
    8.5637   -5.4246    0.0000 C   0  0
    6.4238   -6.6610    0.0000 C   0  0
    7.1399   -7.8850    0.0000 C   0  0
    9.9958   -5.4121    0.0000 C   0  0
    5.7119   -5.4246    0.0000 C   0  0
    7.1357   -8.7093    0.0000 C   0  0
    5.7119   -6.2489    0.0000 C   0  0
    6.4238   -5.0000    0.0000 C   0  0
    9.9958   -6.2364    0.0000 C   0  0
    9.2714   -5.0000    0.0000 C   0  0
    5.0000   -5.0124    0.0000 Cl  0  0
   10.7077   -5.0000    0.0000 Cl  0  0
    7.8393   -9.9458    0.0000 C   0  0
    6.4155   -9.1215    0.0000 C   0  0
    7.1232  -10.3579    0.0000 C   0  0
    6.4113   -9.9333    0.0000 C   0  0
  2  1  1  0
  3  2  1  0
  4  2  1  0
  5 13  1  0
  6  4  1  0
  7  3  2  0
  8  3  1  0
  9  4  2  0
 10  1  1  0
 11 17  1  0
 12 15  1  0
 13 10  1  0
 14  9  1  0
 15  6  2  0
 16  7  1  0
 17  8  2  0
 18 12  1  0
 19 11  1  0
 20  5  1  0
 21 13  1  0
 22 20  1  0
 23 21  1  0
 22 23  1  0
 11 16  2  0
 12 14  2  0
M  END
> <COMPOUND_ID>
DNDI1417575

$$$$

  SciTegic04051205032D

 25 27  0  0  0  0            999 V2000
    6.1914   -7.0488    0.0000 N   0  0
    6.8196   -6.5744    0.0000 C   0  0
    7.5432   -6.8660    0.0000 C   0  0
    6.3000   -7.8228    0.0000 C   0  0
    7.6492   -7.6320    0.0000 C   0  0
    7.0343   -8.1197    0.0000 N   0  0
   12.7568   -7.4093    0.0000 C   0  0
    8.2084   -6.3518    0.0000 C   0  0  1  0  0  0
    8.9877   -6.6698    0.0000 C   0  0
   11.9829   -7.0833    0.0000 C   0  0
    9.6371   -6.1556    0.0000 C   0  0  2  0  0  0
   10.4217   -6.4684    0.0000 C   0  0
    6.6976   -5.7395    0.0000 N   0  0
   11.8662   -6.2616    0.0000 C   0  0
   11.3175   -7.6055    0.0000 C   0  0
   12.3778   -8.1541    0.0000 F   0  0
   13.1305   -6.6089    0.0000 F   0  0
   13.4883   -7.7565    0.0000 F   0  0
   10.5303   -7.2953    0.0000 C   0  0
   11.0764   -5.9515    0.0000 C   0  0
    5.6798   -8.3052    0.0000 N   0  0
    8.0918   -5.5195    0.0000 C   0  0
    8.3967   -7.9633    0.0000 C   0  0
    8.7518   -5.0000    0.0000 C   0  0
    9.5311   -5.3180    0.0000 C   0  0
  2  1  2  0
  3  2  1  0
  4  1  1  0
  5  6  1  0
  6  4  2  0
  7 10  1  0
  8  3  1  6
  9  8  1  0
 10 15  1  0
 11  9  1  0
 11 12  1  1
 13  2  1  0
 14 20  1  0
 15 19  2  0
 16  7  1  0
 17  7  1  0
 18  7  1  0
 19 12  1  0
 20 12  2  0
 21  4  1  0
 22  8  1  0
 23  5  1  0
 24 22  1  0
 25 24  1  0
  5  3  2  0
 25 11  1  0
 10 14  2  0
M  END
> <COMPOUND_ID>
DNDI1417576

$$$$

  SciTegic04051205032D

 25 28  0  0  0  0            999 V2000
    7.0442   -6.5994    0.0000 C   0  0
    6.2610   -5.5133    0.0000 C   0  0
    6.2610   -6.3384    0.0000 N   0  0
    7.0535   -5.2685    0.0000 N   0  0
    7.5337   -5.9398    0.0000 C   0  0
    7.2890   -7.3920    0.0000 C   0  0
    9.4031   -9.3289    0.0000 C   0  0
    5.4848   -5.2475    0.0000 S   0  0
   10.2072   -9.5061    0.0000 C   0  0
    5.4685   -6.5808    0.0000 C   0  0
    8.3449   -8.3616    0.0000 N   0  0
    5.0000   -5.9118    0.0000 C   0  0
    8.8460   -9.9303    0.0000 C   0  0
    8.0978   -7.5738    0.0000 N   0  0
    6.7296   -7.9980    0.0000 O   0  0
    9.1490   -8.5364    0.0000 C   0  0
   10.4567  -10.2869    0.0000 C   0  0
    9.0908  -10.7205    0.0000 C   0  0
    9.8996  -10.9093    0.0000 C   0  0
    8.3589   -5.9398    0.0000 C   0  0
    8.0348   -9.7509    0.0000 O   0  0
   10.7597   -8.9000    0.0000 C   0  0
   11.2608  -10.4594    0.0000 C   0  0
   11.5615   -9.0656    0.0000 C   0  0
   11.8133   -9.8557    0.0000 C   0  0
  2  3  1  0
  3  1  1  0
  4  5  1  0
  5  1  2  0
  6  1  1  0
  7 16  1  0
  8  2  1  0
  9  7  1  0
 10  3  1  0
 11 14  1  0
 12 10  2  0
 13  7  2  0
 14  6  1  0
 15  6  2  0
 16 11  2  0
 17  9  1  0
 18 13  1  0
 19 18  2  0
 20  5  1  0
 21 13  1  0
 22  9  2  0
 23 17  2  0
 24 22  1  0
 25 24  2  0
  4  2  2  0
 12  8  1  0
 19 17  1  0
 25 23  1  0
M  END
> <COMPOUND_ID>
DNDI1417577

$$$$

  SciTegic04051205032D

 26 28  0  0  0  0            999 V2000
    7.1363   -7.3171    0.0000 C   0  0
    7.8566   -7.7210    0.0000 C   0  0
    7.8608   -8.5538    0.0000 C   0  0
    7.1488   -8.9703    0.0000 O   0  0
    7.1363   -6.4925    0.0000 C   0  0
    6.4325   -7.7335    0.0000 C   0  0
    6.4325   -8.5580    0.0000 C   0  0
    8.5729   -8.9578    0.0000 C   0  0
    6.4200   -6.0845    0.0000 C   0  0
    7.8484   -6.0720    0.0000 C   0  0
    6.4117   -5.2600    0.0000 O   0  0
    7.8442   -5.2475    0.0000 O   0  0
    8.5729   -9.7823    0.0000 C   0  0
    9.2808   -8.5456    0.0000 C   0  0
   10.0054   -9.7781    0.0000 C   0  0
    9.9971   -8.9453    0.0000 C   0  0
    9.2850  -10.1946    0.0000 C   0  0
    5.7121   -7.3213    0.0000 C   0  0
   10.7217  -10.1904    0.0000 O   0  0
    5.7121   -8.9703    0.0000 C   0  0
    8.5604   -6.4842    0.0000 C   0  0
    5.7079   -6.4967    0.0000 C   0  0
   11.4338   -9.7698    0.0000 C   0  0
    5.0000   -7.7335    0.0000 C   0  0
    5.0000   -8.5580    0.0000 C   0  0
   12.1459  -10.1821    0.0000 C   0  0
  2  1  1  0
  3  2  2  0
  4  7  1  0
  5  1  1  0
  6  1  1  0
  7  6  1  0
  8  3  1  0
  9  5  1  0
 10  5  1  0
 11  9  2  0
 12 10  2  0
 13  8  2  0
 14  8  1  0
 15 16  1  0
 16 14  2  0
 17 13  1  0
 18  6  2  0
 19 15  1  0
 20  7  2  0
 21 10  1  0
 22  9  1  0
 23 19  1  0
 24 18  1  0
 25 24  2  0
 26 23  1  0
  4  3  1  0
 25 20  1  0
 17 15  2  0
M  END
> <COMPOUND_ID>
DNDI1417578

$$$$

  SciTegic04051205032D

 26 29  0  0  0  0            999 V2000
    9.2892   -6.2380    0.0000 N   0  0
    9.2975   -7.0634    0.0000 C   0  0
    7.8594   -6.2421    0.0000 C   0  0
    8.5722   -5.8254    0.0000 C   0  0
    7.8594   -7.0675    0.0000 C   0  0
    8.5806   -7.4801    0.0000 N   0  0
    7.1467   -5.8295    0.0000 C   0  0
   10.0145   -7.4760    0.0000 N   0  0
    7.1467   -7.4801    0.0000 C   0  0
   10.7273   -7.0591    0.0000 C   0  0
    6.4339   -6.2380    0.0000 C   0  0
    6.4339   -7.0717    0.0000 C   0  0
   11.4401   -7.4718    0.0000 C   0  0
   12.1528   -7.0591    0.0000 C   0  0
    8.5681   -5.0000    0.0000 N   0  0
    5.7170   -5.8295    0.0000 O   0  0
    5.7170   -7.4843    0.0000 O   0  0
   10.7190   -6.2380    0.0000 C   0  0
   11.4359   -5.8212    0.0000 C   0  0
   11.4401   -8.2971    0.0000 C   0  0
   12.1528   -6.2338    0.0000 C   0  0
   12.8614   -7.4676    0.0000 C   0  0
    5.0042   -7.8970    0.0000 C   0  0
    5.0000   -5.4168    0.0000 C   0  0
   12.1528   -8.6973    0.0000 C   0  0
   12.8656   -8.2929    0.0000 C   0  0
  2  1  1  0
  3  4  1  0
  4  1  2  0
  5  6  1  0
  6  2  2  0
  7  3  2  0
  8  2  1  0
  9  5  2  0
 10  8  1  0
 11  7  1  0
 12  9  1  0
 13 10  1  0
 14 13  2  0
 15  4  1  0
 16 11  1  0
 17 12  1  0
 18 10  1  0
 19 18  1  0
 20 13  1  0
 21 19  1  0
 22 14  1  0
 23 17  1  0
 24 16  1  0
 25 20  2  0
 26 25  1  0
  5  3  1  0
 12 11  2  0
 21 14  1  0
 26 22  2  0
M  END
> <COMPOUND_ID>
DNDI1417579

$$$$

  SciTegic04051205032D

 24 26  0  0  0  0            999 V2000
    9.6371   -7.1519    0.0000 S   0  0
    8.8087   -7.1519    0.0000 C   0  0
   10.4586   -7.1519    0.0000 N   0  0
    8.3997   -6.4334    0.0000 C   0  0
    6.3303   -7.1416    0.0000 C   0  0
    5.0000   -7.0006    0.0000 N   0  0
    9.6405   -6.3234    0.0000 O   0  0
    9.6371   -7.9734    0.0000 O   0  0
    8.3927   -7.8668    0.0000 C   0  0
    7.1553   -7.1416    0.0000 C   0  0
    7.5712   -6.4334    0.0000 C   0  0
    5.7185   -6.5916    0.0000 O   0  0
    5.9969   -7.8977    0.0000 C   0  0
   10.8849   -6.4403    0.0000 C   0  0
    7.5712   -7.8634    0.0000 C   0  0
    5.1719   -7.8119    0.0000 C   0  0
   10.8849   -7.8531    0.0000 C   0  0
    8.8087   -5.7185    0.0000 O   0  0
   10.4690   -5.7219    0.0000 C   0  0
   11.7064   -6.4403    0.0000 C   0  0
    8.4030   -5.0000    0.0000 C   0  0
   11.7064   -7.8531    0.0000 C   0  0
   10.8849   -5.0103    0.0000 C   0  0
   12.1189   -7.1519    0.0000 C   0  0
  2  1  1  0
  3  1  1  0
  4  2  1  0
  5 10  1  0
  6 12  1  0
  7  1  2  0
  8  1  2  0
  9  2  2  0
 10 15  2  0
 11  4  2  0
 12  5  1  0
 13  5  2  0
 14  3  1  0
 15  9  1  0
 16 13  1  0
 17  3  1  0
 18  4  1  0
 19 14  1  0
 20 14  1  0
 21 18  1  0
 22 17  1  0
 23 19  1  0
 24 22  1  0
 10 11  1  0
 20 24  1  0
  6 16  2  0
M  END
> <COMPOUND_ID>
DNDI1417580

$$$$

  SciTegic04051205032D

 21 22  0  0  0  0            999 V2000
    8.5611   -7.3153    0.0000 C   0  0
    8.5611   -6.4910    0.0000 C   0  0
    7.8533   -7.7206    0.0000 C   0  0
    7.1400   -7.3153    0.0000 C   0  0
    7.8533   -6.0719    0.0000 C   0  0
    7.1400   -6.4910    0.0000 C   0  0
    6.4294   -7.7206    0.0000 C   0  0
    9.2827   -7.7317    0.0000 N   0  0
    6.4294   -8.5449    0.0000 N   0  0
    9.9933   -7.3237    0.0000 C   0  0
    5.7133   -8.9557    0.0000 C   0  0
    7.8533   -8.5449    0.0000 O   0  0
    7.8533   -5.2475    0.0000 O   0  0
    9.2827   -6.0663    0.0000 Br  0  0
    5.7133   -9.7856    0.0000 O   0  0
   10.7094   -7.7317    0.0000 O   0  0
    6.4294   -6.0719    0.0000 C   0  0
    5.7133   -7.3153    0.0000 C   0  0
    5.7133   -6.4910    0.0000 C   0  0
    9.9933   -6.4937    0.0000 C   0  0
    5.0000   -8.5449    0.0000 C   0  0
  2  1  2  0
  3  1  1  0
  4  3  1  0
  5  2  1  0
  6  5  1  0
  7  4  1  0
  8  1  1  0
  9  7  1  0
 10  8  1  0
 11  9  1  0
 12  3  2  0
 13  5  2  0
 14  2  1  0
 15 11  2  0
 16 10  2  0
 17  6  1  0
 18  7  2  0
 19 17  2  0
 20 10  1  0
 21 11  1  0
  6  4  2  0
 19 18  1  0
M  END
> <COMPOUND_ID>
DNDI1417581

$$$$

  SciTegic04051205032D

 25 28  0  0  0  0            999 V2000
    7.8613   -6.2565    0.0000 C   0  0
    7.1397   -6.6629    0.0000 C   0  0
    9.2919   -7.9069    0.0000 C   0  0
    8.5662   -6.6629    0.0000 C   0  0
    9.3748   -8.7321    0.0000 N   0  0
    6.4389   -6.2565    0.0000 C   0  0
    8.5786   -7.4881    0.0000 N   0  0
   10.0383   -7.5710    0.0000 S   0  0
    7.8613   -5.4313    0.0000 C   0  0
    9.2795   -6.2565    0.0000 C   0  0
    5.7298   -6.6629    0.0000 N   0  0
   10.1752   -8.9021    0.0000 C   0  0
   10.5857   -8.1847    0.0000 C   0  0
    6.4389   -5.4313    0.0000 C   0  0
    7.1397   -5.0125    0.0000 C   0  0
    9.2795   -5.4188    0.0000 C   0  0
   10.0010   -6.6629    0.0000 C   0  0
    7.1397   -7.4881    0.0000 O   0  0
   10.7183   -5.4188    0.0000 C   0  0
   10.7183   -6.2441    0.0000 C   0  0
   10.0010   -5.0125    0.0000 C   0  0
   11.4192   -5.0000    0.0000 F   0  0
    5.0000   -6.2565    0.0000 C   0  0
    5.7215   -5.0125    0.0000 C   0  0
    5.0000   -5.4313    0.0000 C   0  0
  2  1  2  0
  3  7  1  0
  4  1  1  0
  5  3  2  0
  6  2  1  0
  7  4  1  0
  8  3  1  0
  9  1  1  0
 10  4  1  0
 11  6  1  0
 12  5  1  0
 13  8  1  0
 14 15  1  0
 15  9  2  0
 16 10  2  0
 17 10  1  0
 18  2  1  0
 19 20  1  0
 20 17  2  0
 21 16  1  0
 22 19  1  0
 23 11  2  0
 24 14  1  0
 25 24  2  0
  6 14  2  0
 21 19  2  0
 23 25  1  0
 12 13  2  0
M  END
> <COMPOUND_ID>
DNDI1417582

$$$$

  SciTegic04051205032D

 25 28  0  0  0  0            999 V2000
    7.9523   -8.3475    0.0000 C   0  0
    8.4575   -7.7049    0.0000 C   0  0
    7.1274   -8.4129    0.0000 C   0  0
    6.9315   -9.2171    0.0000 N   0  0
    8.2135   -6.9487    0.0000 N   0  0
    6.5947   -7.7942    0.0000 C   0  0
    9.2962   -7.7255    0.0000 S   0  0
    7.6190   -9.6570    0.0000 N   0  0
    8.2582   -9.1243    0.0000 C   0  0
    5.7767   -7.9695    0.0000 C   0  0
    6.8593   -7.0174    0.0000 C   0  0
    5.2440   -7.3508    0.0000 C   0  0
    8.9009   -6.4435    0.0000 C   0  0
    9.5642   -6.9316    0.0000 C   0  0
    5.5327   -6.5741    0.0000 C   0  0
    6.3095   -6.4229    0.0000 C   0  0
    5.5121   -8.7463    0.0000 O   0  0
    5.0000   -5.9314    0.0000 O   0  0
    9.0487   -9.3237    0.0000 C   0  0
    6.5569   -5.6221    0.0000 C   0  0
    8.9903   -5.6221    0.0000 C   0  0
   10.3204   -6.5947    0.0000 C   0  0
    5.9967   -5.0000    0.0000 C   0  0
    9.7498   -5.2887    0.0000 C   0  0
   10.4132   -5.7767    0.0000 C   0  0
  2  1  1  0
  3  1  1  0
  4  3  2  0
  5  2  2  0
  6  3  1  0
  7  2  1  0
  8  9  1  0
  9  1  2  0
 10  6  1  0
 11  6  2  0
 12 10  2  0
 13  5  1  0
 14  7  1  0
 15 16  2  0
 16 11  1  0
 17 10  1  0
 18 15  1  0
 19  9  1  0
 20 16  1  0
 21 13  1  0
 22 14  1  0
 23 20  1  0
 24 21  2  0
 25 22  2  0
  8  4  1  0
 13 14  2  0
 15 12  1  0
 24 25  1  0
M  END
> <COMPOUND_ID>
DNDI1417583

$$$$

  SciTegic04051205032D

 25 27  0  0  0  0            999 V2000
    9.8223   -6.6016    0.0000 S   0  0
    8.7875   -7.5591    0.0000 C   0  0
    9.5830   -7.3760    0.0000 C   0  0
    8.2172   -6.9677    0.0000 C   0  0
   10.6179   -6.3975    0.0000 C   0  0
    7.4041   -7.1683    0.0000 C   0  0
   10.8608   -5.6196    0.0000 C   0  0
    8.4566   -6.1898    0.0000 O   0  0
   10.1427   -7.9673    0.0000 C   0  0
    7.1929   -7.9462    0.0000 C   0  0
    6.8303   -6.6016    0.0000 C   0  0
   10.2272   -5.0000    0.0000 N   0  0
    5.8060   -7.6048    0.0000 C   0  0
    6.0172   -6.8093    0.0000 C   0  0
    6.3834   -8.1751    0.0000 C   0  0
    5.0000   -7.8089    0.0000 F   0  0
   11.1846   -7.0135    0.0000 C   0  0
   11.6703   -5.4401    0.0000 C   0  0
   10.9381   -7.7878    0.0000 C   0  0
    9.9033   -8.7699    0.0000 C   0  0
   11.9907   -6.8093    0.0000 C   0  0
   11.5049   -8.3863    0.0000 C   0  0
   12.2336   -6.0314    0.0000 C   0  0
   10.4629   -9.3648    0.0000 C   0  0
   11.2726   -9.1783    0.0000 C   0  0
  2  3  1  0
  3  1  1  0
  4  2  1  0
  5  1  1  0
  6  4  1  0
  7  5  1  0
  8  4  2  0
  9  3  1  0
 10  6  1  0
 11  6  2  0
 12  7  1  0
 13 14  2  0
 14 11  1  0
 15 10  2  0
 16 13  1  0
 17  5  2  0
 18  7  2  0
 19  9  1  0
 20  9  2  0
 21 17  1  0
 22 19  2  0
 23 21  2  0
 24 20  1  0
 25 24  2  0
 23 18  1  0
 25 22  1  0
 13 15  1  0
M  END
> <COMPOUND_ID>
DNDI1417584

$$$$

  SciTegic04051205032D

 26 28  0  0  0  0            999 V2000
    7.0982   -5.3611    0.0000 N   0  0
    7.8473   -5.7066    0.0000 C   0  0
    7.9077   -6.5282    0.0000 N   0  0
    6.5086   -6.6321    0.0000 N   0  0
    6.4192   -5.8202    0.0000 C   0  0
    7.2577   -6.9800    0.0000 C   0  0
    8.5287   -5.2475    0.0000 N   0  0
    7.3471   -7.7775    0.0000 C   0  0
    8.6519   -6.9438    0.0000 O   0  0
    5.6798   -5.4746    0.0000 N   0  0
    6.6270   -8.1037    0.0000 C   0  0
    6.7309   -8.9034    0.0000 C   0  0
   11.3776   -7.1806    0.0000 C   0  0
    9.3334   -6.4702    0.0000 C   0  0
   10.7276   -6.6200    0.0000 C   0  0
    7.4969   -9.2393    0.0000 C   0  0
    6.0713   -9.3916    0.0000 C   0  0
   12.1678   -6.9051    0.0000 C   0  0
   11.2326   -7.9877    0.0000 C   0  0
    9.9906   -7.0139    0.0000 C   0  0
    6.1606  -10.2155    0.0000 C   0  0
    7.5839  -10.0633    0.0000 C   0  0
   12.7985   -7.4440    0.0000 C   0  0
   11.8609   -8.5265    0.0000 C   0  0
    6.9242  -10.5490    0.0000 C   0  0
   12.6413   -8.2510    0.0000 C   0  0
  2  1  2  0
  3  2  1  0
  4  5  2  0
  5  1  1  0
  6  4  1  0
  7  2  1  0
  8  6  1  0
  9  3  1  0
 10  5  1  0
 11  8  1  0
 12 11  1  0
 13 15  1  0
 14  9  1  0
 15 20  1  0
 16 12  2  0
 17 12  1  0
 18 13  2  0
 19 13  1  0
 20 14  1  0
 21 17  2  0
 22 16  1  0
 23 18  1  0
 24 19  2  0
 25 21  1  0
 26 24  1  0
  3  6  1  0
 25 22  2  0
 26 23  2  0
M  END
> <COMPOUND_ID>
DNDI1417585

$$$$

  SciTegic04051205032D

 26 28  0  0  0  0            999 V2000
    6.9868   -7.1254    0.0000 C   0  0
    5.7816   -7.8570    0.0000 C   0  0
    7.8184   -7.1254    0.0000 C   0  0
    6.5825   -7.8570    0.0000 C   0  0
    5.3350   -7.1523    0.0000 O   0  0
    8.2343   -6.4246    0.0000 C   0  0
   10.6946   -9.2623    0.0000 C   0  0
    9.4779   -8.5692    0.0000 N   0  0
   10.2904   -8.5692    0.0000 C   0  0
    5.7624   -6.4246    0.0000 C   0  0
    9.0428   -7.8570    0.0000 C   0  0
    6.5825   -6.4246    0.0000 C   0  0
    8.2112   -7.8570    0.0000 C   0  0
    5.7816   -8.6886    0.0000 C   0  0
    5.0000   -8.1573    0.0000 C   0  0
    9.0621   -6.4246    0.0000 C   0  0
    7.8415   -5.6854    0.0000 C   0  0
   11.5148   -9.2623    0.0000 C   0  0
   10.2904   -9.9823    0.0000 C   0  0
   10.7254   -7.8570    0.0000 C   0  0
    9.4779   -5.7085    0.0000 C   0  0
    8.2343   -5.0000    0.0000 C   0  0
   11.9267   -9.9554    0.0000 C   0  0
   10.7254  -10.6946    0.0000 C   0  0
    9.0891   -5.0000    0.0000 C   0  0
   11.5571  -10.6985    0.0000 C   0  0
  2  4  1  0
  3  1  1  0
  4  1  1  0
  5 10  1  0
  6  3  1  0
  7  9  1  0
  8 11  1  0
  9  8  1  0
 10 12  1  0
 11 13  1  0
 12  1  1  0
 13  3  1  0
 14  2  1  0
 15  2  1  0
 16  6  2  0
 17  6  1  0
 18  7  1  0
 19  7  2  0
 20  9  1  0
 21 16  1  0
 22 17  2  0
 23 18  2  0
 24 19  1  0
 25 22  1  0
 26 24  2  0
  5  2  1  0
 25 21  2  0
 23 26  1  0
M  END
> <COMPOUND_ID>
DNDI1417586

$$$$

  SciTegic04051205032D

 23 24  0  0  0  0            999 V2000
    7.1381   -6.0835    0.0000 C   0  0
    6.4219   -6.5050    0.0000 N   0  0
    7.8473   -6.5050    0.0000 C   0  0
    6.4219   -7.3204    0.0000 N   0  0
    7.8473   -7.3204    0.0000 C   0  0
    7.1381   -7.7282    0.0000 C   0  0
    9.9854   -7.7419    0.0000 C   0  0
    5.7126   -6.0904    0.0000 C   0  0
    8.5600   -7.7282    0.0000 S   0  0
    7.1381   -5.2475    0.0000 O   0  0
    9.9854   -8.5642    0.0000 N   0  0
    9.2762   -7.3204    0.0000 C   0  0
    8.5737   -6.0904    0.0000 Cl  0  0
   10.7118   -7.3273    0.0000 C   0  0
    9.2762   -8.9720    0.0000 O   0  0
    5.0000   -6.5050    0.0000 C   0  0
    6.2849   -5.5010    0.0000 C   0  0
    5.7126   -5.2612    0.0000 C   0  0
   10.7118   -6.5050    0.0000 C   0  0
   11.4176   -7.7419    0.0000 C   0  0
   12.1441   -7.3273    0.0000 C   0  0
   11.4176   -6.0904    0.0000 C   0  0
   12.1441   -6.5050    0.0000 C   0  0
  2  1  1  0
  3  1  1  0
  4  2  1  0
  5  3  2  0
  6  5  1  0
  7 12  1  0
  8  2  1  0
  9  5  1  0
 10  1  2  0
 11  7  2  0
 12  9  1  0
 13  3  1  0
 14  7  1  0
 15 11  1  0
 16  8  1  0
 17  8  1  0
 18  8  1  0
 19 14  1  0
 20 14  2  0
 21 20  1  0
 22 19  2  0
 23 22  1  0
  6  4  2  0
 23 21  2  0
M  END
> <COMPOUND_ID>
DNDI1417587

$$$$

  SciTegic04051205032D

 21 23  0  0  0  0            999 V2000
    7.9358   -7.1081    0.0000 N   0  0
    8.3988   -6.4557    0.0000 C   0  0
    7.1466   -6.0418    0.0000 C   0  0
    7.9358   -5.7822    0.0000 C   0  0
    7.1466   -6.8661    0.0000 C   0  0
    8.1989   -7.8867    0.0000 C   0  0
    6.4381   -7.2764    0.0000 C   0  0
    7.6517   -8.5356    0.0000 C   0  0
    6.4381   -5.6314    0.0000 C   0  0
    9.2265   -6.4557    0.0000 O   0  0
    8.1989   -5.0000    0.0000 O   0  0
    6.5889   -9.7703    0.0000 C   0  0
    7.3886   -9.9386    0.0000 C   0  0
    6.3118   -9.0021    0.0000 C   0  0
    6.8309   -8.3813    0.0000 C   0  0
    7.9358   -9.3178    0.0000 C   0  0
    5.7330   -6.0418    0.0000 C   0  0
    5.7330   -6.8661    0.0000 C   0  0
    7.6727  -10.7243    0.0000 F   0  0
    5.4840   -8.8723    0.0000 F   0  0
    5.0000   -5.6139    0.0000 Br  0  0
  2  1  1  0
  3  5  2  0
  4  2  1  0
  5  1  1  0
  6  1  1  0
  7  5  1  0
  8  6  1  0
  9  3  1  0
 10  2  2  0
 11  4  2  0
 12 13  2  0
 13 16  1  0
 14 15  2  0
 15  8  1  0
 16  8  2  0
 17 18  1  0
 18  7  2  0
 19 13  1  0
 20 14  1  0
 21 17  1  0
  3  4  1  0
 12 14  1  0
 17  9  2  0
M  END
> <COMPOUND_ID>
DNDI1417588

$$$$

  SciTegic04051205032D

 26 29  0  0  0  0            999 V2000
    8.3806   -6.7641    0.0000 C   0  0
    8.3365   -7.5671    0.0000 N   0  0
    9.0931   -6.3609    0.0000 N   0  0
    7.6764   -6.3382    0.0000 C   0  0
    9.0217   -8.8410    0.0000 C   0  0
    6.2311   -6.3145    0.0000 C   0  0
    9.0467   -8.0107    0.0000 O   0  0
    6.9436   -6.7415    0.0000 C   0  0
    6.2311   -5.4866    0.0000 C   0  0
    5.4496   -6.5750    0.0000 O   0  0
    5.4496   -5.2475    0.0000 O   0  0
    5.0000   -5.8863    0.0000 C   0  0
    7.6764   -5.4866    0.0000 C   0  0
    8.2866   -9.2442    0.0000 O   0  0
    9.7319   -9.2692    0.0000 C   0  0
    6.9436   -5.0833    0.0000 C   0  0
    9.1395   -5.5579    0.0000 C   0  0
    9.8032   -6.8129    0.0000 C   0  0
    9.6855  -10.0971    0.0000 C   0  0
   10.4669   -8.8909    0.0000 C   0  0
    9.8746   -5.1547    0.0000 C   0  0
   10.5347   -6.4323    0.0000 C   0  0
   10.3956  -10.5218    0.0000 C   0  0
   11.1521   -9.3156    0.0000 C   0  0
   10.5597   -5.6067    0.0000 C   0  0
   11.1271  -10.1435    0.0000 C   0  0
  2  1  2  0
  3  1  1  0
  4  1  1  0
  5  7  1  0
  6  8  1  0
  7  2  1  0
  8  4  2  0
  9 16  1  0
 10  6  1  0
 11  9  1  0
 12 10  1  0
 13  4  1  0
 14  5  2  0
 15  5  1  0
 16 13  2  0
 17  3  1  0
 18  3  1  0
 19 15  2  0
 20 15  1  0
 21 17  1  0
 22 18  1  0
 23 19  1  0
 24 20  2  0
 25 22  1  0
 26 24  1  0
  6  9  2  0
 21 25  1  0
 12 11  1  0
 26 23  2  0
M  END
> <COMPOUND_ID>
DNDI1417589

$$$$

  SciTegic04051205032D

 25 27  0  0  0  0            999 V2000
    9.3587   -7.8514    0.0000 N   0  0
   10.0316   -6.6855    0.0000 C   0  0
   10.0316   -7.4617    0.0000 C   0  0
    8.6892   -6.6855    0.0000 C   0  0
    8.6892   -7.4617    0.0000 C   0  0
    5.8811   -6.6989    0.0000 C   0  0
    8.0030   -6.3091    0.0000 C   0  0
    6.5907   -6.2858    0.0000 O   0  0
    7.3301   -6.6855    0.0000 C   0  0
    8.0030   -7.8514    0.0000 C   0  0
    5.4681   -5.9927    0.0000 F   0  0
    5.1650   -7.1219    0.0000 F   0  0
    6.3075   -7.4184    0.0000 F   0  0
   14.9749   -6.1959    0.0000 C   0  0
   14.9749   -5.3698    0.0000 C   0  0
    7.3301   -7.4617    0.0000 C   0  0
   10.7378   -6.2991    0.0000 C   0  0
   12.1368   -6.2991    0.0000 N   0  0
   10.7378   -7.8647    0.0000 C   0  0
   13.5525   -6.2525    0.0000 C   0  0
   14.3153   -6.6189    0.0000 C   0  0
   12.8797   -6.6855    0.0000 C   0  0
   11.4407   -6.6989    0.0000 C   0  0
   14.2420   -5.0000    0.0000 C   0  0
   13.5525   -5.4197    0.0000 C   0  0
  2  3  2  0
  3  1  1  0
  4  5  2  0
  5  1  1  0
  6  8  1  0
  7  4  1  0
  8  9  1  0
  9 16  1  0
 10  5  1  0
 11  6  1  0
 12  6  1  0
 13  6  1  0
 14 21  1  0
 15 14  2  0
 16 10  2  0
 17  2  1  0
 18 23  1  0
 19  3  1  0
 20 22  1  0
 21 20  1  0
 22 18  1  0
 23 17  1  0
 24 25  1  0
 25 20  1  0
  2  4  1  0
  9  7  2  0
 15 24  1  0
M  END
> <COMPOUND_ID>
DNDI1417590

$$$$

  SciTegic04051205032D

 26 28  0  0  0  0            999 V2000
    8.8755   -7.3728    0.0000 N   0  0
    9.6973   -7.2834    0.0000 C   0  0
    9.8658   -6.4787    0.0000 N   0  0
    8.5419   -6.6129    0.0000 C   0  0
    9.1540   -6.0661    0.0000 C   0  0
    8.4628   -8.0846    0.0000 C   0  0
    7.7578   -6.3618    0.0000 N   0  0
   12.4175   -8.1672    0.0000 C   0  0
   12.6754   -7.3831    0.0000 O   0  0
   14.3363   -9.2263    0.0000 C   0  0
   12.9711   -8.7793    0.0000 N   0  0
   15.1444   -9.0475    0.0000 C   0  0
    7.6375   -8.0846    0.0000 C   0  0
   10.2510   -7.8989    0.0000 C   0  0
    5.9834   -8.0846    0.0000 C   0  0
    5.1650   -8.0846    0.0000 F   0  0
    7.2248   -8.7999    0.0000 C   0  0
    7.2248   -7.3728    0.0000 C   0  0
    6.3995   -8.7999    0.0000 C   0  0
    6.3995   -7.3728    0.0000 C   0  0
    8.9786   -5.2579    0.0000 C   0  0
   11.0625   -7.7270    0.0000 C   0  0
   11.6128   -8.3357    0.0000 C   0  0
   13.7792   -8.6108    0.0000 C   0  0
    7.5859   -5.5503    0.0000 C   0  0
    8.1946   -5.0000    0.0000 C   0  0
  2  1  1  0
  3  2  2  0
  4  1  1  0
  5  4  1  0
  6  1  1  0
  7  4  2  0
  8 23  1  0
  9  8  2  0
 10 24  1  0
 11  8  1  0
 12 10  2  0
 13  6  1  0
 14  2  1  0
 15 20  2  0
 16 15  1  0
 17 13  1  0
 18 13  2  0
 19 17  2  0
 20 18  1  0
 21  5  2  0
 22 14  1  0
 23 22  1  0
 24 11  1  0
 25  7  1  0
 26 25  2  0
  5  3  1  0
 15 19  1  0
 26 21  1  0
M  END
> <COMPOUND_ID>
DNDI1417591

$$$$

  SciTegic04051205032D

 26 27  0  0  0  0            999 V2000
    6.1422   -6.3960    0.0000 C   0  0
    9.8941   -8.5093    0.0000 C   0  0
    6.9698   -6.3960    0.0000 N   0  0
    9.4859   -7.8030    0.0000 N   0  0
    5.7228   -5.6843    0.0000 C   0  0
   10.7439   -8.5093    0.0000 C   0  0
   13.2213   -8.5093    0.0000 C   0  0
   12.3826   -8.5093    0.0000 C   0  0
    8.6748   -7.8030    0.0000 C   0  0
    7.4167   -7.1188    0.0000 C   0  0
    5.7449   -7.1188    0.0000 O   0  0
    9.5134   -9.2376    0.0000 O   0  0
    8.2609   -7.1188    0.0000 C   0  0
   11.1246   -7.8030    0.0000 C   0  0
   11.1412   -9.2376    0.0000 C   0  0
   11.9854   -7.8030    0.0000 C   0  0
   11.9854   -9.2100    0.0000 C   0  0
    7.4167   -8.5148    0.0000 C   0  0
    5.3145   -5.0000    0.0000 C   0  0
    5.0000   -6.1256    0.0000 C   0  0
    6.4401   -5.2704    0.0000 C   0  0
   13.2213   -7.6872    0.0000 C   0  0
   13.2213   -9.3038    0.0000 C   0  0
   14.0379   -8.5093    0.0000 C   0  0
    8.2941   -8.5148    0.0000 C   0  0
    7.0029   -7.8196    0.0000 C   0  0
  2  4  1  0
  3  1  1  0
  4  9  1  0
  5  1  1  0
  6  2  1  0
  7  8  1  0
  8 17  2  0
  9 13  2  0
 10  3  1  0
 11  1  2  0
 12  2  2  0
 13 10  1  0
 14  6  1  0
 15  6  2  0
 16 14  2  0
 17 15  1  0
 18 26  1  0
 19  5  1  0
 20  5  1  0
 21  5  1  0
 22  7  1  0
 23  7  1  0
 24  7  1  0
 25 18  2  0
 26 10  2  0
 25  9  1  0
 16  8  1  0
M  END
> <COMPOUND_ID>
DNDI1417592

$$$$

  SciTegic04051205032D

 25 28  0  0  0  0            999 V2000
    8.3990   -8.7259    0.0000 N   0  0
    7.6901   -8.3035    0.0000 C   0  0
    8.3990   -9.5504    0.0000 N   0  0
    6.9660   -8.7259    0.0000 C   0  0
    7.6901   -9.9628    0.0000 C   0  0
    6.9660   -9.5504    0.0000 C   0  0
    6.2520  -12.4366    0.0000 N   0  0
    7.6901   -7.4739    0.0000 C   0  0
    7.6901  -10.7924    0.0000 N   0  0
    8.3990   -7.0666    0.0000 C   0  0
    6.9660   -7.0666    0.0000 C   0  0
    7.6901   -5.8297    0.0000 C   0  0
    6.9660   -6.2369    0.0000 C   0  0
    8.3990   -6.2319    0.0000 C   0  0
    7.7001   -5.0000    0.0000 Cl  0  0
    6.9660  -11.1997    0.0000 C   0  0
    6.9660  -12.0243    0.0000 C   0  0
    6.2520   -8.3035    0.0000 C   0  0
    6.2520   -9.9628    0.0000 C   0  0
    5.4676  -12.1953    0.0000 C   0  0
    6.2520  -13.2662    0.0000 C   0  0
    5.5430   -8.7259    0.0000 C   0  0
    5.0000  -12.8590    0.0000 C   0  0
    5.4676  -13.5076    0.0000 C   0  0
    5.5430   -9.5504    0.0000 C   0  0
  2  1  1  0
  3  1  2  0
  4  2  2  0
  5  3  1  0
  6  5  2  0
  7 17  1  0
  8  2  1  0
  9  5  1  0
 10  8  2  0
 11  8  1  0
 12 13  1  0
 13 11  2  0
 14 10  1  0
 15 12  1  0
 16  9  1  0
 17 16  1  0
 18  4  1  0
 19  6  1  0
 20  7  1  0
 21  7  1  0
 22 18  2  0
 23 20  1  0
 24 21  1  0
 25 19  2  0
  4  6  1  0
 14 12  2  0
 22 25  1  0
 23 24  1  0
M  END
> <COMPOUND_ID>
DNDI1417593

$$$$

  SciTegic04051205032D

 26 28  0  0  0  0            999 V2000
    8.7391   -8.1922    0.0000 C   0  0
   10.1724   -8.1922    0.0000 C   0  0
    9.4649   -7.7925    0.0000 C   0  0
   10.8982   -7.7695    0.0000 C   0  0
    8.0087   -7.7695    0.0000 C   0  0
    9.4649   -9.4234    0.0000 N   0  0
   10.1724   -9.0237    0.0000 C   0  0
    8.7391   -9.0237    0.0000 C   0  0
    9.4649   -6.9564    0.0000 O   0  0
   10.8982   -6.9104    0.0000 C   0  0
    7.2782   -8.1922    0.0000 C   0  0
    6.5754   -7.7695    0.0000 C   0  0
   11.6057   -6.5154    0.0000 C   0  0
   11.6057   -5.6747    0.0000 C   0  0
    5.8725   -8.1922    0.0000 C   0  0
   12.2948   -5.2475    0.0000 F   0  0
    5.1650   -7.7695    0.0000 F   0  0
    9.4649  -10.2641    0.0000 C   0  0
    6.5754   -9.4234    0.0000 C   0  0
   10.1954   -5.6747    0.0000 C   0  0
   10.1954   -6.5154    0.0000 C   0  0
    7.2782   -9.0237    0.0000 C   0  0
    5.8725   -9.0237    0.0000 C   0  0
   10.8982   -5.2750    0.0000 C   0  0
   10.1724  -10.6591    0.0000 C   0  0
   10.8753  -10.2641    0.0000 C   0  0
  2  3  1  0
  3  1  1  0
  4  2  2  0
  5  1  2  0
  6  8  1  0
  7  6  1  0
  8  1  1  0
  9  3  2  0
 10  4  1  0
 11  5  1  0
 12 11  2  0
 13 10  2  0
 14 13  1  0
 15 12  1  0
 16 14  1  0
 17 15  1  0
 18  6  1  0
 19 22  2  0
 20 21  2  0
 21 10  1  0
 22 11  1  0
 23 19  1  0
 24 20  1  0
 25 18  1  0
 26 25  1  0
  7  2  1  0
 23 15  2  0
 14 24  2  0
M  END
> <COMPOUND_ID>
DNDI1417594

$$$$

  SciTegic04051205032D

 27 30  0  0  0  0            999 V2000
    7.7282   -7.4768    0.0000 C   0  0
    7.7077   -6.6461    0.0000 C   0  0
    8.4461   -7.8461    0.0000 C   0  0
    8.5076   -8.6716    0.0000 N   0  0
    6.9898   -6.2563    0.0000 C   0  0
    7.8051   -9.1230    0.0000 C   0  0
    6.4154   -9.1486    0.0000 C   0  0
    7.1077   -8.7384    0.0000 C   0  0
    8.4051   -6.2563    0.0000 O   0  0
    5.5538   -6.2563    0.0000 N   0  0
   10.5128   -6.4769    0.0000 N   0  0
    9.1436   -7.4153    0.0000 C   0  0
    6.4154   -9.9691    0.0000 C   0  0
    7.1077  -10.3947    0.0000 C   0  0
    7.8051  -10.0101    0.0000 C   0  0
    6.2667   -6.6615    0.0000 C   0  0
    6.9898   -5.4102    0.0000 C   0  0
    9.7589   -6.1230    0.0000 C   0  0
   10.5589   -7.3024    0.0000 C   0  0
    5.5538   -5.4102    0.0000 C   0  0
    5.6923   -8.7384    0.0000 C   0  0
    9.8974   -7.7691    0.0000 C   0  0
    9.0769   -6.5845    0.0000 C   0  0
    5.6923  -10.3947    0.0000 C   0  0
    6.2821   -5.0000    0.0000 C   0  0
    5.0000   -9.1230    0.0000 C   0  0
    5.0000  -10.0101    0.0000 C   0  0
  2  1  1  0
  3  1  1  0
  4  3  1  0
  5  2  1  0
  6  4  1  0
  7  8  2  0
  8  6  1  0
  9  2  2  0
 10 16  1  0
 11 18  2  0
 12  3  1  0
 13 14  2  0
 14 15  1  0
 15  6  2  0
 16  5  2  0
 17  5  1  0
 18 23  1  0
 19 22  2  0
 20 25  1  0
 21  7  1  0
 22 12  1  0
 23 12  2  0
 24 13  1  0
 25 17  2  0
 26 21  2  0
 27 24  2  0
 19 11  1  0
 10 20  2  0
 13  7  1  0
 27 26  1  0
M  END
> <COMPOUND_ID>
DNDI1417595

$$$$

  SciTegic04051205032D

 25 27  0  0  0  0            999 V2000
    7.8441   -6.2384    0.0000 C   0  0
    7.1273   -5.8231    0.0000 C   0  0
    7.8339   -7.0665    0.0000 C   0  0
    6.3980   -8.7076    0.0000 C   0  0
    7.1045   -7.4794    0.0000 S   0  0
    6.2156   -9.5206    0.0000 O   0  0
    8.5507   -7.4920    0.0000 C   0  0
    5.6787   -8.2923    0.0000 C   0  0
    5.3976   -9.6067    0.0000 C   0  0
    7.1273   -5.0000    0.0000 O   0  0
    5.0000   -7.0665    0.0000 N   0  0
    5.0709   -8.8520    0.0000 C   0  0
    6.4233   -6.2384    0.0000 C   0  0
    7.1045   -8.3049    0.0000 C   0  0
    8.5507   -8.3151    0.0000 C   0  0
    9.2547   -7.0767    0.0000 C   0  0
    9.9714   -8.3303    0.0000 C   0  0
    9.9714   -7.5022    0.0000 C   0  0
    9.2547   -8.7304    0.0000 C   0  0
   10.6906   -8.7558    0.0000 O   0  0
    5.0000   -6.2485    0.0000 C   0  0
    5.7167   -7.4794    0.0000 C   0  0
    5.7167   -5.8383    0.0000 C   0  0
    6.4233   -7.0665    0.0000 C   0  0
   11.4074   -8.3429    0.0000 C   0  0
  2  1  1  0
  3  1  1  0
  4 14  1  0
  5  3  1  0
  6  4  1  0
  7  3  1  0
  8  4  2  0
  9  6  1  0
 10  2  2  0
 11 22  1  0
 12  8  1  0
 13  2  1  0
 14  5  1  0
 15  7  2  0
 16  7  1  0
 17 18  1  0
 18 16  2  0
 19 15  1  0
 20 17  1  0
 21 23  1  0
 22 24  2  0
 23 13  2  0
 24 13  1  0
 25 20  1  0
 17 19  2  0
 21 11  2  0
  9 12  2  0
M  END
> <COMPOUND_ID>
DNDI1417596

$$$$

  SciTegic04051205032D

 26 28  0  0  0  0            999 V2000
   12.8215   -6.4852    0.0000 N   0  0
   12.4226   -5.7745    0.0000 C   0  0
   11.6045   -5.7745    0.0000 C   0  0
   13.6362   -6.4852    0.0000 C   0  0
   12.8450   -5.0604    0.0000 O   0  0
   11.1787   -6.4852    0.0000 C   0  0
   11.1787   -5.0604    0.0000 C   0  0
    8.6912   -6.4852    0.0000 O   0  0
   12.4226   -7.2027    0.0000 C   0  0
    7.8463   -6.4852    0.0000 C   0  0
    9.9349   -5.7745    0.0000 C   0  0
    6.2035   -6.4852    0.0000 C   0  0
    9.0935   -5.7745    0.0000 C   0  0
   10.3540   -6.4852    0.0000 C   0  0
   10.3540   -5.0604    0.0000 C   0  0
    7.4440   -7.2127    0.0000 C   0  0
    7.4440   -5.7745    0.0000 C   0  0
    6.6058   -7.2127    0.0000 C   0  0
    6.6058   -5.7745    0.0000 C   0  0
   14.0485   -7.1926    0.0000 C   0  0
    5.3822   -6.4618    0.0000 O   0  0
   12.8215   -7.9067    0.0000 C   0  0
   13.6496   -7.9067    0.0000 C   0  0
    5.0000   -5.7175    0.0000 C   0  0
   14.8732   -7.1926    0.0000 C   0  0
    5.3688   -5.0000    0.0000 C   0  0
  2  1  1  0
  3  2  1  0
  4  1  1  0
  5  2  2  0
  6  3  2  0
  7  3  1  0
  8 13  1  0
  9  1  1  0
 10  8  1  0
 11 14  2  0
 12 18  2  0
 13 11  1  0
 14  6  1  0
 15  7  2  0
 16 10  2  0
 17 10  1  0
 18 16  1  0
 19 17  2  0
 20  4  1  0
 21 12  1  0
 22  9  1  0
 23 22  1  0
 24 21  1  0
 25 20  1  0
 26 24  1  0
 23 20  1  0
 11 15  1  0
 12 19  1  0
M  END
> <COMPOUND_ID>
DNDI1417597

$$$$

  SciTegic04051205032D

 25 28  0  0  0  0            999 V2000
    8.0511   -6.3295    0.0000 C   0  0
    7.6477   -6.7727    0.0000 C   0  0
    7.2698   -5.0000    0.0000 S   0  0
    8.0511   -5.4744    0.0000 C   0  0
    8.1364   -7.4403    0.0000 N   0  0
    8.8011   -6.7727    0.0000 C   0  0
    6.9233   -6.7727    0.0000 C   0  0
    6.5198   -5.4744    0.0000 C   0  0
    9.5511   -6.3295    0.0000 C   0  0
    6.5198   -6.3295    0.0000 C   0  0
    9.0966   -8.7585    0.0000 N   0  0
   10.2585   -6.7187    0.0000 N   0  0
    7.8096   -8.1903    0.0000 C   0  0
    8.9488   -7.3437    0.0000 C   0  0
    8.8011   -5.0312    0.0000 C   0  0
    9.5511   -5.4744    0.0000 C   0  0
    9.4346   -7.9886    0.0000 C   0  0
    8.3040   -8.8551    0.0000 C   0  0
    9.5511   -9.4346    0.0000 C   0  0
    5.7698   -5.0312    0.0000 C   0  0
    5.7698   -6.7727    0.0000 C   0  0
   10.2671   -7.5227    0.0000 C   0  0
   10.9233   -6.2982    0.0000 C   0  0
    5.0000   -5.4744    0.0000 C   0  0
    5.0000   -6.3295    0.0000 C   0  0
  2  1  1  0
  3  4  1  0
  4  1  2  0
  5  2  1  0
  6  1  1  0
  7  2  1  0
  8  3  1  0
  9  6  2  0
 10  7  1  0
 11 17  1  0
 12  9  1  0
 13  5  1  0
 14  5  1  0
 15  4  1  0
 16  9  1  0
 17 14  1  0
 18 13  1  0
 19 11  1  0
 20  8  1  0
 21 10  1  0
 22 12  1  0
 23 12  1  0
 24 20  2  0
 25 21  2  0
 16 15  2  0
  8 10  2  0
 11 18  1  0
 24 25  1  0
M  END
> <COMPOUND_ID>
DNDI1417598

$$$$

  SciTegic04051205032D

 20 21  0  0  0  0            999 V2000
   10.4236   -7.3800    0.0000 C   0  0
    9.7716   -7.8011    0.0000 C   0  0
    7.0143   -6.6601    0.0000 C   0  0
    8.2639   -7.3800    0.0000 N   0  0
   11.1843   -7.7242    0.0000 C   0  0
    6.5978   -7.3664    0.0000 C   0  0
    9.0835   -7.3800    0.0000 N   0  0
    6.5796   -5.9448    0.0000 C   0  0
    9.7898   -8.6478    0.0000 O   0  0
    7.8338   -6.6601    0.0000 C   0  0
    5.7692   -7.3846    0.0000 C   0  0
    5.7511   -5.9538    0.0000 C   0  0
   11.2386   -8.5391    0.0000 Br  0  0
    5.3617   -6.6737    0.0000 C   0  0
    5.3300   -5.2475    0.0000 Cl  0  0
    7.0143   -8.0863    0.0000 O   0  0
   10.4010   -6.5515    0.0000 C   0  0
   11.8816   -7.3031    0.0000 C   0  0
   11.1073   -6.0942    0.0000 C   0  0
   11.8544   -6.4609    0.0000 C   0  0
  2  1  1  0
  3 10  1  0
  4  7  1  0
  5  1  2  0
  6  3  1  0
  7  2  1  0
  8  3  2  0
  9  2  2  0
 10  4  2  0
 11  6  2  0
 12  8  1  0
 13  5  1  0
 14 12  2  0
 15 12  1  0
 16  6  1  0
 17  1  1  0
 18  5  1  0
 19 17  2  0
 20 19  1  0
 20 18  2  0
 14 11  1  0
M  END
> <COMPOUND_ID>
DNDI1417599

$$$$

  SciTegic04051205032D

 24 25  0  0  0  0            999 V2000
    7.0711   -7.8613    0.0000 C   0  0
    6.2684   -8.0776    0.0000 C   0  0
    7.6533   -8.4435    0.0000 C   0  0
    7.2832   -7.0628    0.0000 O   0  0
    8.7429   -6.3600    0.0000 C   0  0
    6.0563   -8.8761    0.0000 C   0  0
    7.4329   -9.2420    0.0000 C   0  0
    8.0817   -6.8549    0.0000 C   0  0
    9.5289   -6.6012    0.0000 C   0  0
    6.6427   -9.4583    0.0000 C   0  0
    5.6862   -7.4912    0.0000 Cl  0  0
    8.4518   -8.2356    0.0000 O   0  0
    9.9157   -7.3248    0.0000 F   0  0
    5.7112  -10.6727    0.0000 N   0  0
    5.0000  -12.7313    0.0000 O   0  0
    6.4306  -10.2568    0.0000 C   0  0
    8.5558   -5.5615    0.0000 C   0  0
   10.1403   -6.0398    0.0000 C   0  0
    5.7112  -11.4919    0.0000 C   0  0
    5.0000  -11.9079    0.0000 C   0  0
    9.0299   -8.8178    0.0000 C   0  0
    9.8284   -8.5974    0.0000 C   0  0
    9.1629   -5.0000    0.0000 C   0  0
    9.9531   -5.2371    0.0000 C   0  0
  2  1  2  0
  3  1  1  0
  4  1  1  0
  5  8  1  0
  6  2  1  0
  7  3  2  0
  8  4  1  0
  9  5  1  0
 10  6  2  0
 11  2  1  0
 12  3  1  0
 13  9  1  0
 14 16  1  0
 15 20  1  0
 16 10  1  0
 17  5  2  0
 18  9  2  0
 19 14  1  0
 20 19  1  0
 21 12  1  0
 22 21  1  0
 23 17  1  0
 24 23  2  0
 10  7  1  0
 24 18  1  0
M  END
> <COMPOUND_ID>
DNDI1417600

$$$$

  SciTegic04051205032D

 25 28  0  0  0  0            999 V2000
    7.8533   -7.0619    0.0000 C   0  0
    7.1452   -7.4825    0.0000 C   0  0
    6.4329   -7.0619    0.0000 C   0  0
    7.8617   -6.2412    0.0000 C   0  0
    8.5697   -7.4825    0.0000 C   0  0
    6.4329   -6.2412    0.0000 C   0  0
    7.1452   -5.8205    0.0000 C   0  0
    8.5697   -8.2990    0.0000 N   0  0
    5.7248   -7.4825    0.0000 N   0  0
    9.2820   -7.0619    0.0000 C   0  0
   10.0026   -7.4742    0.0000 N   0  0
    7.1452   -8.2990    0.0000 O   0  0
    7.1452   -5.0000    0.0000 Cl  0  0
    5.7248   -5.8205    0.0000 C   0  0
    9.2820   -8.7197    0.0000 C   0  0
    7.8533   -8.7197    0.0000 C   0  0
    5.0083   -7.0619    0.0000 C   0  0
   10.7066   -7.0619    0.0000 C   0  0
    9.2820   -6.2412    0.0000 C   0  0
    5.0000   -6.2371    0.0000 C   0  0
    7.8533   -9.5527    0.0000 C   0  0
    9.2820   -9.5402    0.0000 C   0  0
   10.7066   -6.2371    0.0000 C   0  0
    9.9901   -5.8205    0.0000 C   0  0
    8.5697   -9.9526    0.0000 C   0  0
  2  1  2  0
  3  2  1  0
  4  1  1  0
  5  1  1  0
  6  7  1  0
  7  4  2  0
  8  5  1  0
  9  3  1  0
 10  5  1  0
 11 10  2  0
 12  2  1  0
 13  7  1  0
 14  6  1  0
 15  8  1  0
 16  8  1  0
 17  9  2  0
 18 11  1  0
 19 10  1  0
 20 14  2  0
 21 16  1  0
 22 15  1  0
 23 18  2  0
 24 19  2  0
 25 22  1  0
  6  3  2  0
 23 24  1  0
 20 17  1  0
 25 21  1  0
M  END
> <COMPOUND_ID>
DNDI1417601

$$$$

  SciTegic04051205032D

 21 23  0  0  0  0            999 V2000
    7.7401   -6.6174    0.0000 C   0  0
    7.9951   -7.4090    0.0000 C   0  0
    6.9181   -6.6174    0.0000 C   0  0
    8.5317   -6.3929    0.0000 C   0  0
    7.3329   -7.8657    0.0000 N   0  0
    6.6593   -7.4090    0.0000 C   0  0
    8.5888   -5.5709    0.0000 C   0  0
    9.2054   -6.8610    0.0000 C   0  0
    9.3195   -5.2169    0.0000 C   0  0
    9.9589   -6.5071    0.0000 O   0  0
   10.0236   -5.6850    0.0000 C   0  0
    6.3511   -6.0123    0.0000 C   0  0
    8.7905   -7.6374    0.0000 O   0  0
    7.8810   -5.1103    0.0000 O   0  0
    5.8373   -7.5764    0.0000 C   0  0
    7.9570   -5.8220    0.0000 O   0  0
    5.5480   -6.1760    0.0000 C   0  0
    5.2893   -6.9409    0.0000 C   0  0
    5.0000   -5.5709    0.0000 Br  0  0
   10.4841   -5.0000    0.0000 C   0  0
   10.7999   -5.4338    0.0000 C   0  0
  2  1  1  0
  3  1  1  0
  4  1  1  0
  5  2  1  0
  6  3  2  0
  7  4  1  0
  8  4  1  0
  9  7  1  0
 10  8  1  0
 11 10  1  0
 12  3  1  0
 13  2  2  0
 14  7  2  0
 15  6  1  0
 16  1  1  0
 17 12  2  0
 18 17  1  0
 19 17  1  0
 20 11  1  0
 21 11  1  0
  5  6  1  0
  9 11  1  0
 15 18  2  0
M  END
> <COMPOUND_ID>
DNDI1417602

$$$$

  SciTegic04051205032D

 22 23  0  0  0  0            999 V2000
   12.1147   -8.1288    0.0000 C   0  0
    6.3921   -5.6583    0.0000 C   0  0
   11.3970   -7.7179    0.0000 C   0  0
    7.8194   -5.6583    0.0000 N   0  0
    6.3921   -6.4907    0.0000 S   0  0
   12.1093   -8.9478    0.0000 C   0  0
   12.8190   -7.7179    0.0000 C   0  0
    7.0991   -5.2475    0.0000 N   0  0
   11.3970   -6.8909    0.0000 O   0  0
    5.6798   -5.2582    0.0000 N   0  0
    8.5318   -5.2475    0.0000 C   0  0
   10.6820   -6.4747    0.0000 C   0  0
    9.2521   -5.6557    0.0000 C   0  0
   12.8190   -6.8909    0.0000 Cl  0  0
   11.3943   -9.3666    0.0000 Cl  0  0
    9.9644   -6.8909    0.0000 C   0  0
   10.6820   -5.6530    0.0000 C   0  0
    9.2521   -6.4747    0.0000 C   0  0
    9.9644   -5.2342    0.0000 C   0  0
   13.5340   -8.9478    0.0000 C   0  0
   13.5340   -8.1154    0.0000 C   0  0
   12.8217   -9.3666    0.0000 C   0  0
  2  8  1  0
  3  1  1  0
  4 11  2  0
  5  2  2  0
  6  1  2  0
  7  1  1  0
  8  4  1  0
  9  3  1  0
 10  2  1  0
 11 13  1  0
 12  9  1  0
 13 18  1  0
 14  7  1  0
 15  6  1  0
 16 12  1  0
 17 12  2  0
 18 16  2  0
 19 17  1  0
 20 22  2  0
 21  7  2  0
 22  6  1  0
 20 21  1  0
 13 19  2  0
M  END
> <COMPOUND_ID>
DNDI1417603

$$$$

  SciTegic04051205032D

 26 28  0  0  0  0            999 V2000
    8.6624   -9.0958    0.0000 N   0  0
    8.5765   -9.9177    0.0000 C   0  0
    9.3296  -10.2512    0.0000 N   0  0
    9.4706   -8.9204    0.0000 C   0  0
    9.8832   -9.6392    0.0000 O   0  0
    7.8646  -10.3304    0.0000 C   0  0
    7.1459   -9.9177    0.0000 C   0  0
    6.4340  -10.3304    0.0000 C   0  0
   10.9596   -7.3316    0.0000 C   0  0
   11.7850   -7.2422    0.0000 N   0  0
    6.4340  -11.1557    0.0000 C   0  0
   12.7857   -5.0000    0.0000 N   0  0
    7.8646  -11.1557    0.0000 C   0  0
   10.4748   -6.6645    0.0000 O   0  0
    7.1459  -11.5684    0.0000 C   0  0
   12.1220   -6.4891    0.0000 C   0  0
    9.8042   -8.1707    0.0000 C   0  0
   10.6260   -8.0882    0.0000 C   0  0
    5.7118   -9.9177    0.0000 O   0  0
   11.6302   -5.8185    0.0000 C   0  0
   12.9404   -6.4066    0.0000 C   0  0
    5.7118  -11.5684    0.0000 O   0  0
   11.9707   -5.0826    0.0000 C   0  0
   13.2774   -5.6535    0.0000 C   0  0
    5.0000  -10.3304    0.0000 C   0  0
    5.7118  -12.3937    0.0000 C   0  0
  2  1  1  0
  3  2  2  0
  4  1  2  0
  5  4  1  0
  6  2  1  0
  7  6  2  0
  8  7  1  0
  9 18  1  0
 10  9  1  0
 11 15  1  0
 12 24  2  0
 13  6  1  0
 14  9  2  0
 15 13  2  0
 16 10  1  0
 17  4  1  0
 18 17  1  0
 19  8  1  0
 20 16  1  0
 21 16  2  0
 22 11  1  0
 23 20  2  0
 24 21  1  0
 25 19  1  0
 26 22  1  0
  5  3  1  0
 11  8  2  0
 23 12  1  0
M  END
> <COMPOUND_ID>
DNDI1417604

$$$$

  SciTegic04051205032D

 26 29  0  0  0  0            999 V2000
   10.4532   -8.0291    0.0000 C   0  0
    9.9581   -8.7099    0.0000 N   0  0
    9.9581   -7.3518    0.0000 N   0  0
    9.1535   -7.6096    0.0000 C   0  0
    9.1604   -8.4520    0.0000 C   0  0
    7.7025   -7.6165    0.0000 C   0  0
    8.4280   -7.1901    0.0000 C   0  0
    8.4315   -8.8784    0.0000 C   0  0
    7.7025   -8.4554    0.0000 C   0  0
    6.9977   -6.3855    0.0000 C   0  0
    6.9977   -7.2073    0.0000 N   0  0
    6.9908   -8.8646    0.0000 N   0  0
    6.2894   -5.9833    0.0000 C   0  0
   11.2749   -8.0291    0.0000 O   0  0
    5.5467   -6.3133    0.0000 O   0  0
    7.7025   -5.9833    0.0000 O   0  0
    6.2068   -5.1684    0.0000 C   0  0
    5.0000   -5.7048    0.0000 C   0  0
    5.4126   -5.0000    0.0000 C   0  0
   10.2159   -9.4869    0.0000 C   0  0
   10.2159   -6.5712    0.0000 C   0  0
    6.9908   -9.6726    0.0000 C   0  0
    6.2894   -8.4520    0.0000 C   0  0
    5.5846   -8.8543    0.0000 C   0  0
    6.2860  -10.0852    0.0000 C   0  0
    5.5776   -9.6726    0.0000 C   0  0
  2  1  1  0
  3  1  1  0
  4  3  1  0
  5  2  1  0
  6  7  1  0
  7  4  2  0
  8  5  2  0
  9  8  1  0
 10 11  1  0
 11  6  1  0
 12  9  1  0
 13 10  1  0
 14  1  2  0
 15 13  1  0
 16 10  2  0
 17 13  2  0
 18 15  1  0
 19 17  1  0
 20  2  1  0
 21  3  1  0
 22 12  1  0
 23 12  1  0
 24 23  1  0
 25 22  1  0
 26 24  1  0
  4  5  1  0
  6  9  2  0
 26 25  1  0
 19 18  2  0
M  END
> <COMPOUND_ID>
DNDI1417605

$$$$

  SciTegic04051205032D

 27 30  0  0  0  0            999 V2000
    7.1410   -7.9033    0.0000 C   0  0
    7.1410   -8.7321    0.0000 N   0  0
    7.8533   -9.9692    0.0000 C   0  0
    7.8533   -7.4825    0.0000 N   0  0
    7.8533   -9.1404    0.0000 C   0  0
    7.1368  -10.3733    0.0000 N   0  0
    8.5655  -10.3733    0.0000 N   0  0
    7.8533   -6.6620    0.0000 C   0  0
    6.4287   -7.4950    0.0000 C   0  0
    7.1368   -6.2496    0.0000 C   0  0
    6.4287   -6.6703    0.0000 C   0  0
    7.1368  -11.1980    0.0000 C   0  0
    8.5655  -11.1980    0.0000 C   0  0
    8.5655   -6.2496    0.0000 C   0  0
    9.2778   -6.6578    0.0000 N   0  0
    7.8491  -11.6104    0.0000 C   0  0
    8.5655   -8.7321    0.0000 N   0  0
    5.7123   -6.2579    0.0000 C   0  0
    5.7123   -7.9116    0.0000 C   0  0
    9.9901   -6.2371    0.0000 C   0  0
    6.4162  -11.6104    0.0000 C   0  0
    9.2778  -11.6104    0.0000 C   0  0
    8.5572   -5.4207    0.0000 C   0  0
    5.0000   -6.6703    0.0000 C   0  0
    9.9901   -5.4124    0.0000 C   0  0
    5.0000   -7.4992    0.0000 C   0  0
    9.2653   -5.0000    0.0000 C   0  0
  2  1  1  0
  3  5  1  0
  4  1  2  0
  5  2  2  0
  6  3  2  0
  7  3  1  0
  8  4  1  0
  9  1  1  0
 10  8  2  0
 11  9  1  0
 12  6  1  0
 13  7  2  0
 14  8  1  0
 15 14  2  0
 16 13  1  0
 17  5  1  0
 18 11  2  0
 19  9  2  0
 20 15  1  0
 21 12  1  0
 22 13  1  0
 23 14  1  0
 24 26  2  0
 25 20  2  0
 26 19  1  0
 27 23  2  0
 10 11  1  0
 24 18  1  0
 25 27  1  0
 16 12  2  0
M  END
> <COMPOUND_ID>
DNDI1417606

$$$$

  SciTegic04051205032D

 25 27  0  0  0  0            999 V2000
    7.9794   -7.1014    0.0000 C   0  0
    6.5670   -7.0909    0.0000 C   0  0
    7.9794   -7.9189    0.0000 C   0  0
    6.5670   -7.9189    0.0000 C   0  0
    7.2489   -8.3573    0.0000 N   0  0
    7.2697   -6.6908    0.0000 C   0  0
    5.8677   -6.6595    0.0000 C   0  0
    8.6892   -6.6908    0.0000 C   0  0
    8.7031   -8.2947    0.0000 S   0  0
    9.3919   -6.2838    0.0000 N   0  0
    5.1650   -6.2316    0.0000 N   0  0
    5.8608   -8.3260    0.0000 N   0  0
    9.3919   -7.8563    0.0000 C   0  0
    6.5218   -6.2733    0.0000 C   0  0
    7.9690   -6.2525    0.0000 C   0  0
   11.5453   -9.0078    0.0000 C   0  0
   10.1225   -8.2390    0.0000 C   0  0
   12.2550   -9.4253    0.0000 F   0  0
   11.5453   -8.1903    0.0000 C   0  0
   10.8844   -9.4357    0.0000 C   0  0
   10.8043   -7.8041    0.0000 C   0  0
   10.1364   -9.0600    0.0000 C   0  0
    7.9690   -5.4141    0.0000 C   0  0
    6.5218   -5.3897    0.0000 C   0  0
    7.2349   -5.0000    0.0000 C   0  0
  2  6  1  0
  3  1  2  0
  4  5  1  0
  5  3  1  0
  6  1  1  0
  7  2  1  0
  8  1  1  0
  9  3  1  0
 10  8  3  0
 11  7  3  0
 12  4  1  0
 13  9  1  0
 14  6  1  0
 15  6  1  0
 16 20  1  0
 17 13  1  0
 18 16  1  0
 19 21  1  0
 20 22  2  0
 21 17  2  0
 22 17  1  0
 23 15  1  0
 24 14  1  0
 25 23  1  0
  4  2  2  0
 25 24  1  0
 16 19  2  0
M  END
> <COMPOUND_ID>
DNDI1417607

$$$$

  SciTegic04051205032D

 26 28  0  0  0  0            999 V2000
    8.5535   -7.0805    0.0000 C   0  0
   10.7402   -7.5816    0.0000 N   0  0
   10.0341   -7.1488    0.0000 C   0  0
    7.1489   -6.2377    0.0000 C   0  0
    9.3052   -7.5512    0.0000 N   0  0
    7.8550   -7.5133    0.0000 N   0  0
    7.1489   -7.0805    0.0000 C   0  0
   11.4540   -7.2171    0.0000 C   0  0
    8.5535   -6.2377    0.0000 N   0  0
    7.8550   -5.8428    0.0000 C   0  0
    6.4199   -5.8428    0.0000 C   0  0
    6.4199   -7.5133    0.0000 C   0  0
    5.7138   -6.2377    0.0000 C   0  0
    5.7138   -7.0805    0.0000 C   0  0
   12.1602   -7.6651    0.0000 N   0  0
   11.4540   -6.3971    0.0000 O   0  0
   10.0645   -6.3060    0.0000 N   0  0
   12.1070   -8.4928    0.0000 C   0  0
    7.9005   -5.0000    0.0000 C   0  0
    5.0000   -6.1161    0.0000 C   0  0
    5.0760   -7.3917    0.0000 C   0  0
   11.4085   -8.9407    0.0000 C   0  0
   12.8587   -8.9028    0.0000 C   0  0
   12.8891   -9.7228    0.0000 C   0  0
   11.4085   -9.7911    0.0000 C   0  0
   12.1602  -10.1556    0.0000 C   0  0
  2  3  2  0
  3  5  1  0
  4 10  1  0
  5  1  1  0
  6  1  2  0
  7  6  1  0
  8  2  1  0
  9  1  1  0
 10  9  2  0
 11  4  1  0
 12  7  1  0
 13 11  2  0
 14 12  2  0
 15  8  1  0
 16  8  2  0
 17  3  1  0
 18 15  1  0
 19 10  1  0
 20 13  1  0
 21 14  1  0
 22 18  1  0
 23 18  1  0
 24 23  1  0
 25 22  1  0
 26 24  1  0
  7  4  2  0
 14 13  1  0
 26 25  1  0
M  END
> <COMPOUND_ID>
DNDI1417608

$$$$

  SciTegic04051205032D

 27 30  0  0  0  0            999 V2000
    7.1379   -6.6583    0.0000 N   0  0
   10.6962   -7.8708    0.0000 N   0  0
    7.8519   -6.2427    0.0000 C   0  0
    6.4240   -6.2427    0.0000 C   0  0
   11.4176   -7.4666    0.0000 C   0  0
    7.8519   -5.4193    0.0000 C   0  0
    7.1379   -5.0000    0.0000 C   0  0
   10.6849   -6.2277    0.0000 C   0  0
    9.9709   -6.6394    0.0000 C   0  0
    9.9709   -7.4666    0.0000 C   0  0
   11.4176   -6.6394    0.0000 C   0  0
    6.4240   -5.4193    0.0000 C   0  0
    8.5620   -7.4779    0.0000 C   0  0
    8.5620   -6.6583    0.0000 C   0  0
    9.2684   -7.8822    0.0000 C   0  0
    7.1379   -7.4779    0.0000 C   0  0
   10.6962   -8.6904    0.0000 C   0  0
   12.1467   -7.8708    0.0000 C   0  0
    5.7101   -6.6583    0.0000 C   0  0
   12.1467   -6.2277    0.0000 C   0  0
    5.7101   -5.0000    0.0000 C   0  0
    6.4429   -7.8822    0.0000 C   0  0
    9.9974   -9.0984    0.0000 C   0  0
   12.8757   -7.4666    0.0000 C   0  0
    5.0000   -6.2427    0.0000 C   0  0
   12.8757   -6.6394    0.0000 C   0  0
    5.0000   -5.4193    0.0000 C   0  0
  2 10  1  0
  3  1  1  0
  4  1  1  0
  5  2  1  0
  6  3  1  0
  7 12  1  0
  8  9  2  0
  9 10  1  0
 10 15  1  0
 11  8  1  0
 12  4  2  0
 13 14  1  0
 14  3  2  0
 15 13  2  0
 16  1  1  0
 17  2  1  0
 18  5  2  0
 19  4  1  0
 20 11  2  0
 21 12  1  0
 22 16  1  0
 23 17  1  0
 24 18  1  0
 25 19  2  0
 26 20  1  0
 27 25  1  0
  7  6  2  0
 27 21  2  0
 11  5  1  0
 26 24  2  0
M  END
> <COMPOUND_ID>
DNDI1417609

$$$$

  SciTegic04051205032D

 26 28  0  0  0  0            999 V2000
    8.1120   -7.6088    0.0000 N   0  0
    8.1120   -6.2918    0.0000 C   0  0
    8.5709   -6.9578    0.0000 C   0  0
    7.3321   -6.5402    0.0000 C   0  0
    7.3321   -7.3580    0.0000 C   0  0
   11.8020   -6.4401    0.0000 C   0  0
   12.1195   -5.6741    0.0000 C   0  0
   12.3023   -7.0923    0.0000 C   0  0
    6.6143   -6.1353    0.0000 C   0  0
    6.6143   -7.7825    0.0000 C   0  0
    5.8885   -6.5402    0.0000 C   0  0
    8.3788   -5.5004    0.0000 C   0  0
    5.8885   -7.3822    0.0000 C   0  0
    9.6855   -6.0330    0.0000 N   0  0
    9.3933   -6.9578    0.0000 C   0  0
   10.9772   -6.5678    0.0000 C   0  0
   12.9097   -5.5245    0.0000 C   0  0
    5.1650   -6.0985    0.0000 O   0  0
   13.1443   -6.9405    0.0000 C   0  0
   11.5846   -5.0000    0.0000 C   0  0
   11.7042   -7.6169    0.0000 C   0  0
   12.8441   -7.7089    0.0000 C   0  0
   13.4296   -6.1767    0.0000 C   0  0
    9.1863   -5.3669    0.0000 C   0  0
   10.4941   -5.9156    0.0000 C   0  0
    5.1811   -5.2761    0.0000 C   0  0
  2  3  2  0
  3  1  1  0
  4  5  2  0
  5  1  1  0
  6 16  1  0
  7  6  2  0
  8  6  1  0
  9  4  1  0
 10  5  1  0
 11 13  1  0
 12  2  1  0
 13 10  2  0
 14 24  1  0
 15  3  1  0
 16 25  1  0
 17  7  1  0
 18 11  1  0
 19  8  1  0
 20  7  1  0
 21  8  1  0
 22  8  1  0
 23 19  1  0
 24 12  1  0
 25 14  1  0
 26 18  1  0
  2  4  1  0
  9 11  2  0
 23 17  1  0
M  END
> <COMPOUND_ID>
DNDI1417610

$$$$

  SciTegic04051205032D

 26 27  0  0  0  0            999 V2000
    6.4248   -8.6913    0.0000 N   0  0
    5.7082   -8.2871    0.0000 C   0  0
    5.7082   -7.4664    0.0000 C   0  0
    7.1497  -10.7619    0.0000 N   0  0
    5.7082   -5.8124    0.0000 C   0  0
    7.1372   -8.2746    0.0000 C   0  0
    7.1372   -7.4664    0.0000 C   0  0
    5.0000   -7.0498    0.0000 C   0  0
    6.4248   -7.0498    0.0000 C   0  0
    5.0000   -6.2291    0.0000 C   0  0
    6.4248   -6.2291    0.0000 C   0  0
    7.8580   -7.0498    0.0000 C   0  0
    5.7082   -5.0000    0.0000 O   0  0
    6.4248   -9.5120    0.0000 C   0  0
    7.1455   -9.9286    0.0000 C   0  0
    7.8622  -11.1701    0.0000 C   0  0
    6.4248  -11.1743    0.0000 C   0  0
    7.8497   -6.2124    0.0000 C   0  0
    8.5704   -7.4622    0.0000 C   0  0
    5.7082   -9.9411    0.0000 C   0  0
    5.7082  -10.7660    0.0000 C   0  0
    7.8622   -9.5120    0.0000 C   0  0
    8.5704  -10.7619    0.0000 C   0  0
    8.5621   -5.8041    0.0000 C   0  0
    9.2870   -7.0415    0.0000 C   0  0
    9.2828   -6.2124    0.0000 C   0  0
  2  1  1  0
  3  2  1  0
  4 17  1  0
  5 11  2  0
  6  1  1  0
  7  6  1  0
  8  3  1  0
  9  3  2  0
 10  8  2  0
 11  9  1  0
 12  7  1  0
 13  5  1  0
 14  1  1  0
 15  4  1  0
 16  4  1  0
 17 21  1  0
 18 12  2  0
 19 12  1  0
 20 14  1  0
 21 20  1  0
 22 15  1  0
 23 16  1  0
 24 18  1  0
 25 19  2  0
 26 25  1  0
  5 10  1  0
 26 24  2  0
M  END
> <COMPOUND_ID>
DNDI1417611

$$$$

  SciTegic04051205032D

 25 27  0  0  0  0            999 V2000
    6.3246   -7.2150    0.0000 N   0  0
    5.6584   -6.7812    0.0000 N   0  0
    6.9856   -6.7812    0.0000 C   0  0
    6.9856   -6.1073    0.0000 C   0  0
    5.6584   -6.1073    0.0000 C   0  0
    6.3246   -7.8966    0.0000 C   0  0
   10.0892   -6.0724    0.0000 C   0  0
    7.7021   -5.6722    0.0000 C   0  0
    7.0630   -8.3188    0.0000 C   0  0
    7.3935   -7.1956    0.0000 O   0  0
    8.6923   -6.1073    0.0000 N   0  0
    9.3856   -6.4946    0.0000 N   0  0
   10.0814   -5.2475    0.0000 O   0  0
   10.8018   -6.4752    0.0000 C   0  0
    7.0630   -9.1747    0.0000 C   0  0
    7.7563   -9.5698    0.0000 Cl  0  0
    5.0000   -6.1073    0.0000 C   0  0
    5.5849   -8.3188    0.0000 C   0  0
    5.5849   -9.1747    0.0000 C   0  0
   10.8018   -7.3041    0.0000 C   0  0
   11.5106   -6.0608    0.0000 C   0  0
    6.3246   -9.6085    0.0000 C   0  0
   11.5299   -7.7185    0.0000 C   0  0
   12.2425   -6.4752    0.0000 C   0  0
   12.2503   -7.3041    0.0000 C   0  0
  2  1  1  0
  3  1  1  0
  4  3  1  0
  5  2  2  0
  6  1  1  0
  7 12  1  0
  8  4  2  0
  9  6  1  0
 10  3  2  0
 11  8  1  0
 12 11  1  0
 13  7  2  0
 14  7  1  0
 15  9  2  0
 16 15  1  0
 17  5  1  0
 18  6  2  0
 19 18  1  0
 20 14  1  0
 21 14  2  0
 22 19  2  0
 23 20  2  0
 24 21  1  0
 25 24  2  0
  4  5  1  0
 15 22  1  0
 23 25  1  0
M  END
> <COMPOUND_ID>
DNDI1417612

$$$$

  SciTegic04051205032D

 25 28  0  0  0  0            999 V2000
    7.8573   -6.2299    0.0000 C   0  0
    8.5778   -6.6523    0.0000 C   0  0
    7.1492   -6.6481    0.0000 C   0  0
    9.2942   -6.2423    0.0000 C   0  0
    8.5778   -7.4846    0.0000 N   0  0
    6.4327   -6.2299    0.0000 C   0  0
    7.8655   -5.4142    0.0000 C   0  0
    5.7246   -6.6481    0.0000 N   0  0
   10.0105   -6.6689    0.0000 C   0  0
    6.4327   -5.4142    0.0000 C   0  0
    7.1492   -5.0000    0.0000 C   0  0
    8.5778   -9.1327    0.0000 O   0  0
    7.1492   -7.4764    0.0000 O   0  0
    9.9981   -7.4846    0.0000 Cl  0  0
    9.2942   -5.4266    0.0000 C   0  0
    9.2942   -7.8988    0.0000 C   0  0
    7.8655   -7.8822    0.0000 C   0  0
    5.0000   -6.2299    0.0000 C   0  0
    7.8655   -8.7269    0.0000 C   0  0
    9.2942   -8.7145    0.0000 C   0  0
   10.7104   -6.2506    0.0000 C   0  0
    5.7164   -5.0000    0.0000 C   0  0
    9.9981   -5.0166    0.0000 C   0  0
    5.0000   -5.4100    0.0000 C   0  0
   10.7270   -5.4266    0.0000 C   0  0
  2  1  1  0
  3  1  2  0
  4  2  1  0
  5  2  1  0
  6  3  1  0
  7  1  1  0
  8  6  1  0
  9  4  2  0
 10 11  1  0
 11  7  2  0
 12 20  1  0
 13  3  1  0
 14  9  1  0
 15  4  1  0
 16  5  1  0
 17  5  1  0
 18  8  2  0
 19 17  1  0
 20 16  1  0
 21  9  1  0
 22 10  1  0
 23 15  2  0
 24 22  2  0
 25 23  1  0
 10  6  2  0
 12 19  1  0
 24 18  1  0
 25 21  2  0
M  END
> <COMPOUND_ID>
DNDI1417613

$$$$

  SciTegic04051205032D

 22 24  0  0  0  0            999 V2000
    7.8727   -7.7683    0.0000 C   0  0
    7.8727   -6.9280    0.0000 C   0  0
    7.1474   -8.1633    0.0000 C   0  0
    7.1474   -6.5330    0.0000 C   0  0
    6.4220   -7.7683    0.0000 C   0  0
    6.4220   -6.9280    0.0000 C   0  0
    8.5909   -8.1896    0.0000 C   0  0
    8.5670   -6.5043    0.0000 C   0  0
    7.1474   -9.0036    0.0000 O   0  0
    7.1474   -5.6928    0.0000 O   0  0
    8.5670   -9.0036    0.0000 O   0  0
    8.5454   -5.6928    0.0000 C   0  0
    9.2876   -6.8993    0.0000 C   0  0
    9.9699   -5.6640    0.0000 C   0  0
    9.9914   -6.4828    0.0000 C   0  0
    9.2445   -5.2690    0.0000 C   0  0
   10.6880   -5.2475    0.0000 Br  0  0
    5.7301   -6.5330    0.0000 C   0  0
    5.7301   -8.1633    0.0000 C   0  0
    9.3139   -7.7683    0.0000 C   0  0
    5.0000   -6.9280    0.0000 C   0  0
    5.0000   -7.7683    0.0000 C   0  0
  2  1  2  0
  3  1  1  0
  4  2  1  0
  5  3  1  0
  6  5  1  0
  7  1  1  0
  8  2  1  0
  9  3  2  0
 10  4  2  0
 11  7  2  0
 12  8  1  0
 13  8  2  0
 14 15  2  0
 15 13  1  0
 16 12  2  0
 17 14  1  0
 18  6  2  0
 19  5  2  0
 20  7  1  0
 21 22  2  0
 22 19  1  0
  4  6  1  0
 14 16  1  0
 21 18  1  0
M  END
> <COMPOUND_ID>
DNDI1417614

$$$$

  SciTegic04051205032D

 27 30  0  0  0  0            999 V2000
   10.1235   -7.7268    0.0000 C   0  0
    6.6505   -7.1524    0.0000 C   0  0
   11.3354   -6.6640    0.0000 N   0  0
    9.4769   -8.2016    0.0000 C   0  0
   10.8154   -7.9845    0.0000 C   0  0
   11.4801   -7.4916    0.0000 C   0  0
    6.2481   -6.4606    0.0000 C   0  0
    7.8986   -7.8714    0.0000 N   0  0
    6.2481   -7.8579    0.0000 C   0  0
    9.9653   -6.8947    0.0000 C   0  0
   10.5486   -6.3520    0.0000 C   0  0
    8.7172   -7.8714    0.0000 N   0  0
    7.4826   -7.1524    0.0000 C   0  0
    9.6351   -9.0291    0.0000 O   0  0
    5.4206   -6.4470    0.0000 C   0  0
    5.4206   -7.8714    0.0000 C   0  0
    5.0000   -7.1524    0.0000 C   0  0
    6.6370   -8.5769    0.0000 O   0  0
   10.9963   -8.7940    0.0000 C   0  0
    6.6505   -5.7325    0.0000 C   0  0
   12.2805   -7.7810    0.0000 C   0  0
   10.3722   -5.5562    0.0000 C   0  0
    5.0090   -5.7190    0.0000 C   0  0
    6.2571   -5.0000    0.0000 C   0  0
   11.8103   -9.0834    0.0000 C   0  0
   12.4569   -8.5543    0.0000 C   0  0
    5.4070   -5.0000    0.0000 C   0  0
  2 13  1  0
  3 11  1  0
  4  1  1  0
  5  1  2  0
  6  5  1  0
  7  2  2  0
  8 12  1  0
  9  2  1  0
 10  1  1  0
 11 10  2  0
 12  4  1  0
 13  8  2  0
 14  4  2  0
 15  7  1  0
 16  9  2  0
 17 16  1  0
 18  9  1  0
 19  5  1  0
 20  7  1  0
 21  6  1  0
 22 11  1  0
 23 15  1  0
 24 20  2  0
 25 19  2  0
 26 25  1  0
 27 24  1  0
  6  3  2  0
 21 26  2  0
 15 17  2  0
 23 27  2  0
M  END
> <COMPOUND_ID>
DNDI1417615

$$$$

  SciTegic04051205032D

 25 27  0  0  0  0            999 V2000
    8.2581   -8.4712    0.0000 S   0  0
    7.4367   -8.4712    0.0000 C   0  0
    5.7871   -7.0449    0.0000 C   0  0
    5.0000   -6.7906    0.0000 N   0  0
    5.0000   -5.9692    0.0000 N   0  0
    6.2717   -6.3782    0.0000 C   0  0
    9.0829   -8.4712    0.0000 N   0  0
    7.0243   -7.7598    0.0000 C   0  0
    6.1995   -7.7598    0.0000 C   0  0
    8.2581   -7.6464    0.0000 O   0  0
    8.2581   -9.2960    0.0000 O   0  0
    5.7871   -5.7115    0.0000 C   0  0
    7.0243   -9.1861    0.0000 C   0  0
    5.7871   -8.4712    0.0000 C   0  0
    6.1995   -9.1826    0.0000 C   0  0
    9.4919   -7.7563    0.0000 C   0  0
   10.3202   -6.3231    0.0000 C   0  0
   10.3202   -7.7563    0.0000 C   0  0
    9.0761   -7.0415    0.0000 C   0  0
   10.7326   -7.0415    0.0000 C   0  0
    9.4885   -6.3231    0.0000 C   0  0
    6.1995   -5.0000    0.0000 C   0  0
    7.4367   -9.8975    0.0000 C   0  0
   10.7326   -5.6049    0.0000 C   0  0
   11.5540   -5.6117    0.0000 C   0  0
  2  1  1  0
  3  9  1  0
  4  3  1  0
  5  4  1  0
  6  3  2  0
  7  1  1  0
  8  2  1  0
  9  8  2  0
 10  1  2  0
 11  1  2  0
 12  6  1  0
 13  2  2  0
 14 15  2  0
 15 13  1  0
 16  7  1  0
 17 21  1  0
 18 16  2  0
 19 16  1  0
 20 18  1  0
 21 19  2  0
 22 12  1  0
 23 13  1  0
 24 17  1  0
 25 24  1  0
 20 17  2  0
 14  9  1  0
  5 12  2  0
M  END
> <COMPOUND_ID>
DNDI1417616

$$$$

  SciTegic04051205032D

 25 27  0  0  0  0            999 V2000
    6.2683   -7.9181    0.0000 N   0  0
    6.9798   -7.5057    0.0000 C   0  0
    6.2683   -8.7430    0.0000 C   0  0
    7.6948   -7.9181    0.0000 C   0  0
    6.9798   -9.1555    0.0000 N   0  0
    5.4813   -9.0008    0.0000 N   0  0
    7.6948   -8.7430    0.0000 C   0  0
    5.4813   -7.6637    0.0000 N   0  0
    6.9798   -6.6808    0.0000 S   0  0
    5.0000   -8.3306    0.0000 C   0  0
   10.5510   -5.4261    0.0000 C   0  0
    9.8327   -5.0240    0.0000 N   0  0
   10.5579   -6.2545    0.0000 O   0  0
    7.6948   -6.2614    0.0000 C   0  0
   11.2660   -5.0034    0.0000 C   0  0
    9.1280   -5.4434    0.0000 C   0  0
    8.4062   -7.5057    0.0000 C   0  0
    7.6948   -5.4434    0.0000 C   0  0
    8.4062   -6.6808    0.0000 C   0  0
    9.1177   -6.2683    0.0000 C   0  0
    8.4062   -5.0275    0.0000 C   0  0
    8.4062   -9.1555    0.0000 C   0  0
   11.9809   -5.4158    0.0000 C   0  0
   11.9912   -6.2407    0.0000 C   0  0
   12.6958   -5.0000    0.0000 C   0  0
  2  1  1  0
  3  1  1  0
  4  2  2  0
  5  3  1  0
  6  3  2  0
  7  5  2  0
  8  1  1  0
  9  2  1  0
 10  8  2  0
 11 12  1  0
 12 16  1  0
 13 11  2  0
 14  9  1  0
 15 11  1  0
 16 20  2  0
 17  4  1  0
 18 14  1  0
 19 14  2  0
 20 19  1  0
 21 18  2  0
 22  7  1  0
 23 15  1  0
 24 23  1  0
 25 23  1  0
 10  6  1  0
  4  7  1  0
 21 16  1  0
M  END
> <COMPOUND_ID>
DNDI1417617

$$$$

  SciTegic04051205032D

 23 24  0  0  0  0            999 V2000
    9.8085   -6.5849    0.0000 C   0  0
    8.4358   -6.5931    0.0000 C   0  0
    7.7495   -6.1980    0.0000 N   0  0
    9.8085   -7.3835    0.0000 N   0  0
    9.1263   -6.1980    0.0000 N   0  0
    7.0631   -6.5973    0.0000 C   0  0
   11.1687   -7.3835    0.0000 C   0  0
   10.4865   -6.1855    0.0000 S   0  0
   11.8842   -7.7953    0.0000 C   0  0
   11.1687   -6.5849    0.0000 C   0  0
   12.5913   -7.3835    0.0000 C   0  0
    8.4358   -7.3835    0.0000 S   0  0
    7.0631   -7.3835    0.0000 O   0  0
   12.5997   -6.5599    0.0000 O   0  0
    6.3768   -6.1980    0.0000 C   0  0
   13.3026   -7.7953    0.0000 O   0  0
    6.3768   -5.3994    0.0000 C   0  0
    5.6946   -6.5973    0.0000 C   0  0
   14.0222   -7.3835    0.0000 C   0  0
   14.7376   -7.8036    0.0000 C   0  0
    5.6946   -5.0000    0.0000 C   0  0
    5.0000   -6.1980    0.0000 C   0  0
    5.0000   -5.3994    0.0000 C   0  0
  2  5  1  0
  3  2  1  0
  4  1  2  0
  5  1  1  0
  6  3  1  0
  7  4  1  0
  8  1  1  0
  9  7  1  0
 10  8  1  0
 11  9  1  0
 12  2  2  0
 13  6  2  0
 14 11  2  0
 15  6  1  0
 16 11  1  0
 17 15  1  0
 18 15  1  0
 19 16  1  0
 20 19  1  0
 21 17  1  0
 22 18  1  0
 23 22  1  0
 10  7  2  0
 23 21  1  0
M  END
> <COMPOUND_ID>
DNDI1417618

$$$$

  SciTegic04051205032D

 26 27  0  0  0  0            999 V2000
    7.1465   -6.8316    0.0000 C   0  0
    6.4337   -6.4131    0.0000 C   0  0
    7.8551   -6.4131    0.0000 C   0  0
    7.1465   -7.6562    0.0000 C   0  0
    6.4337   -5.5885    0.0000 C   0  0
    5.7168   -6.8316    0.0000 C   0  0
    8.5719   -6.8274    0.0000 C   0  0
    7.8551   -5.5967    0.0000 C   0  0
    7.1465   -6.0029    0.0000 O   0  0
    7.1299   -9.2972    0.0000 N   0  0
    6.4337   -8.0623    0.0000 C   0  0
    6.4254   -8.8870    0.0000 C   0  0
    6.4254   -7.2336    0.0000 O   0  0
    9.2805   -5.5885    0.0000 C   0  0
    5.0000   -5.5885    0.0000 C   0  0
    7.8551   -8.8870    0.0000 C   0  0
    5.0000   -6.4131    0.0000 C   0  0
    9.2805   -6.4131    0.0000 C   0  0
    8.5636   -5.1782    0.0000 C   0  0
    5.7168   -5.1782    0.0000 C   0  0
    8.5719   -7.6521    0.0000 C   0  0
    5.7168   -7.6562    0.0000 C   0  0
    7.2708   -5.0042    0.0000 C   0  0
    7.0180   -5.0000    0.0000 C   0  0
    8.5636   -9.2972    0.0000 C   0  0
    7.8551   -8.0665    0.0000 C   0  0
  2  1  1  0
  3  1  1  0
  4  1  1  0
  5  2  1  0
  6  2  2  0
  7  3  2  0
  8  3  1  0
  9  1  1  0
 10 12  1  0
 11  4  1  0
 12 11  1  0
 13 11  1  0
 14 19  1  0
 15 17  2  0
 16 10  1  0
 17  6  1  0
 18  7  1  0
 19  8  2  0
 20  5  2  0
 21  7  1  0
 22  6  1  0
 23  8  1  0
 24  5  1  0
 25 16  1  0
 26 16  1  0
 14 18  2  0
 15 20  1  0
M  END
> <COMPOUND_ID>
DNDI1417619

$$$$

  SciTegic04051205032D

 26 27  0  0  0  0            999 V2000
    7.1496   -7.4871    0.0000 C   0  0
    7.1496   -8.3119    0.0000 C   0  0
    7.8620   -7.0663    0.0000 C   0  0
    9.9991   -5.8249    0.0000 C   0  0
    9.2867   -6.2415    0.0000 C   0  0
    6.4372   -7.0704    0.0000 C   0  0
    7.8620   -6.2498    0.0000 C   0  0
    8.5743   -7.4788    0.0000 C   0  0
    8.5618   -5.8291    0.0000 C   0  0
    9.2867   -7.0663    0.0000 C   0  0
    7.1371   -9.9491    0.0000 N   0  0
    7.1496   -6.6622    0.0000 O   0  0
    6.4247   -9.5409    0.0000 C   0  0
    6.4372   -8.7160    0.0000 C   0  0
    5.7249   -8.2994    0.0000 O   0  0
    7.8495   -9.5367    0.0000 C   0  0
   10.2115   -6.6247    0.0000 C   0  0
   10.7114   -6.2373    0.0000 C   0  0
    9.9991   -5.0000    0.0000 C   0  0
    5.7124   -7.4871    0.0000 C   0  0
    6.4372   -6.2415    0.0000 C   0  0
    8.5618   -9.9408    0.0000 C   0  0
    7.8370   -8.7118    0.0000 C   0  0
    5.7124   -5.8291    0.0000 C   0  0
    5.0000   -7.0704    0.0000 C   0  0
    5.0000   -6.2415    0.0000 C   0  0
  2  1  1  0
  3  1  1  0
  4  5  1  0
  5 10  2  0
  6  1  1  0
  7  3  1  0
  8  3  2  0
  9  7  2  0
 10  8  1  0
 11 13  1  0
 12  1  1  0
 13 14  1  0
 14  2  1  0
 15 14  1  0
 16 11  1  0
 17  4  1  0
 18  4  1  0
 19  4  1  0
 20  6  2  0
 21  6  1  0
 22 16  1  0
 23 16  1  0
 24 21  2  0
 25 20  1  0
 26 24  1  0
  5  9  1  0
 26 25  2  0
M  END
> <COMPOUND_ID>
DNDI1417620

$$$$

  SciTegic04051205032D

 26 29  0  0  0  0            999 V2000
    5.7903   -8.5201    0.0000 C   0  0
    7.1290   -8.2661    0.0000 C   0  0
    8.5363   -8.2903    0.0000 C   0  0
    6.6008   -8.8910    0.0000 C   0  0
    7.8064   -8.6774    0.0000 N   0  0
    6.0040   -9.3386    0.0000 C   0  0
    5.0000   -8.7379    0.0000 C   0  0
    5.8508   -7.7298    0.0000 C   0  0
    6.3911   -7.0161    0.0000 C   0  0
    5.5806   -8.1572    0.0000 C   0  0
    7.1814   -7.4556    0.0000 C   0  0
    6.3347   -8.4677    0.0000 C   0  0
    9.2379   -8.6975    0.0000 O   0  0
    8.5604   -7.4798    0.0000 N   0  0
    5.6573   -7.3588    0.0000 C   0  0
    5.4234   -9.9192    0.0000 C   0  0
    6.7944   -9.5483    0.0000 C   0  0
    7.1653   -5.8105    0.0000 N   0  0
    7.0121  -10.3426    0.0000 C   0  0
    5.6331  -10.6934    0.0000 C   0  0
    6.4315  -10.9233    0.0000 C   0  0
    7.8427   -7.0524    0.0000 C   0  0
    7.8588   -6.2419    0.0000 C   0  0
    6.4516   -6.2218    0.0000 C   0  0
    7.1814   -5.0000    0.0000 C   0  0
    6.6613  -11.7136    0.0000 C   0  0
  2  4  1  0
  3  5  1  0
  4  1  1  0
  5  2  1  0
  6  1  1  0
  7  1  1  0
  8  1  1  0
  9  8  1  0
 10  7  1  0
 11  9  1  0
 12 10  1  0
 13  3  2  0
 14  3  1  0
 15  9  1  0
 16  6  2  0
 17  6  1  0
 18 23  1  0
 19 17  2  0
 20 16  1  0
 21 19  1  0
 22 14  1  0
 23 22  1  0
 24 18  1  0
 25 18  1  0
 26 21  1  0
 15 10  1  0
 11  2  1  0
 12  2  1  0
 21 20  2  0
M  END
> <COMPOUND_ID>
DNDI1417621

$$$$

  SciTegic04051205032D

 21 24  0  0  0  0            999 V2000
    7.1139   -7.9086    0.0000 C   0  0
    7.8227   -8.3189    0.0000 C   0  0
    7.1222   -7.0879    0.0000 C   0  0
    6.4051   -8.3147    0.0000 C   0  0
    6.4549   -6.6029    0.0000 S   0  0
    7.9097   -9.1272    0.0000 S   0  0
    6.7160   -5.8320    0.0000 C   0  0
    8.7056   -9.2971    0.0000 C   0  0
    7.7812   -6.6112    0.0000 C   0  0
    8.5688   -7.9832    0.0000 C   0  0
    5.7046   -9.5333    0.0000 N   0  0
    6.4051   -9.1272    0.0000 C   0  0
    9.1159   -8.5925    0.0000 C   0  0
    7.5325   -5.8320    0.0000 C   0  0
    5.7046   -7.8961    0.0000 C   0  0
    5.0000   -8.3147    0.0000 C   0  0
    5.2860   -8.6049    0.0000 C   0  0
    5.0000   -9.1272    0.0000 C   0  0
    6.1067   -8.6049    0.0000 C   0  0
    6.1316   -5.2475    0.0000 Cl  0  0
    9.1159   -9.9976    0.0000 Cl  0  0
  2  1  1  0
  3  1  1  0
  4  1  2  0
  5  3  1  0
  6  2  1  0
  7  5  1  0
  8  6  1  0
  9  3  2  0
 10  2  2  0
 11 12  1  0
 12  4  1  0
 13 10  1  0
 14  9  1  0
 15  4  1  0
 16 15  1  0
 17 15  1  0
 18 16  1  0
 19 17  1  0
 20  7  1  0
 21  8  1  0
  7 14  2  0
 13  8  2  0
 11 19  1  0
 11 18  1  0
M  END
> <COMPOUND_ID>
DNDI1417622

$$$$

  SciTegic04051205032D

 27 30  0  0  0  0            999 V2000
    8.6920   -7.8541    0.0000 N   0  0
    7.8736   -7.8541    0.0000 C   0  0
    7.4639   -8.5659    0.0000 C   0  0
    7.8736   -9.2735    0.0000 N   0  0
    8.6920   -9.2735    0.0000 N   0  0
    9.1061   -8.5659    0.0000 C   0  0
    9.1061   -7.1248    0.0000 N   0  0
   10.3549   -6.4173    0.0000 C   0  0
    9.9473   -7.1248    0.0000 C   0  0
   11.1798   -6.4173    0.0000 C   0  0
    7.4475   -7.1248    0.0000 O   0  0
    9.9473   -5.7076    0.0000 C   0  0
    6.6422   -8.5659    0.0000 C   0  0
   11.5874   -5.7076    0.0000 C   0  0
   10.3549   -5.0000    0.0000 C   0  0
   11.1798   -5.0000    0.0000 C   0  0
    9.1148   -5.7076    0.0000 O   0  0
    9.9278   -8.5659    0.0000 C   0  0
   11.5874   -7.1346    0.0000 C   0  0
    6.2347   -7.8541    0.0000 C   0  0
    6.2347   -9.2735    0.0000 C   0  0
   12.4286   -5.7010    0.0000 C   0  0
   12.4286   -7.1346    0.0000 C   0  0
    5.4097   -9.2735    0.0000 C   0  0
    5.4097   -7.8541    0.0000 C   0  0
   12.8481   -6.4173    0.0000 C   0  0
    5.0000   -8.5659    0.0000 C   0  0
  2  1  1  0
  3  2  1  0
  4  5  1  0
  5  6  2  0
  6  1  1  0
  7  1  1  0
  8  9  1  0
  9  7  2  0
 10  8  1  0
 11  2  2  0
 12  8  2  0
 13  3  1  0
 14 10  2  0
 15 12  1  0
 16 15  2  0
 17 12  1  0
 18  6  1  0
 19 10  1  0
 20 13  1  0
 21 13  2  0
 22 14  1  0
 23 19  2  0
 24 21  1  0
 25 20  2  0
 26 23  1  0
 27 24  2  0
  4  3  2  0
 14 16  1  0
 25 27  1  0
 26 22  2  0
M  END
> <COMPOUND_ID>
DNDI1417623

$$$$

  SciTegic04051205032D

 25 27  0  0  0  0            999 V2000
    7.5443   -7.8331    0.0000 C   0  0
    7.8056   -8.6308    0.0000 N   0  0
    6.7225   -7.8434    0.0000 S   0  0
    5.7117  -12.4127    0.0000 C   0  0
    5.7117  -11.5842    0.0000 C   0  0
    7.1317   -9.1155    0.0000 C   0  0
    6.4681   -8.6308    0.0000 C   0  0
    8.0291   -7.1729    0.0000 C   0  0
    6.4337  -12.8116    0.0000 C   0  0
    7.6818   -6.4166    0.0000 C   0  0
    5.0035  -11.1819    0.0000 O   0  0
    6.4234  -11.1750    0.0000 N   0  0
    7.1317   -9.9372    0.0000 C   0  0
    8.1666   -5.7565    0.0000 C   0  0
    6.4234  -10.3498    0.0000 C   0  0
    7.8296   -5.0000    0.0000 F   0  0
    5.0138  -12.8185    0.0000 C   0  0
    7.1454  -12.3956    0.0000 O   0  0
    8.8508   -7.2589    0.0000 C   0  0
    9.3356   -6.5885    0.0000 C   0  0
    6.4440  -13.6333    0.0000 C   0  0
    8.9952   -5.8424    0.0000 C   0  0
    7.1420  -11.5636    0.0000 C   0  0
    5.0000  -13.6333    0.0000 C   0  0
    5.7255  -14.0562    0.0000 C   0  0
  2  1  2  0
  3  1  1  0
  4  5  1  0
  5 12  1  0
  6  2  1  0
  7  3  1  0
  8  1  1  0
  9  4  1  0
 10  8  1  0
 11  5  2  0
 12 15  1  0
 13  6  1  0
 14 10  2  0
 15 13  1  0
 16 14  1  0
 17  4  2  0
 18  9  1  0
 19  8  2  0
 20 19  1  0
 21  9  2  0
 22 20  2  0
 23 18  1  0
 24 17  1  0
 25 24  2  0
  7  6  2  0
 14 22  1  0
 25 21  1  0
M  END
> <COMPOUND_ID>
DNDI1417624

$$$$

  SciTegic04051205032D

 24 27  0  0  0  0            999 V2000
    7.9195   -5.2953    0.0000 N   0  0
   12.2061   -6.2605    0.0000 C   0  0
    7.1364   -5.5564    0.0000 C   0  0
    8.3935   -5.9616    0.0000 C   0  0
   12.5770   -5.5152    0.0000 N   0  0
   12.7968   -6.8238    0.0000 S   0  0
   11.3920   -6.4013    0.0000 N   0  0
    7.9195   -6.6417    0.0000 O   0  0
    6.4323   -5.1339    0.0000 N   0  0
    7.1364   -6.3807    0.0000 C   0  0
   13.3842   -5.6354    0.0000 C   0  0
   13.5284   -6.4529    0.0000 C   0  0
   10.8597   -5.7728    0.0000 C   0  0
    9.2179   -5.9170    0.0000 S   0  0
   11.1585   -5.0000    0.0000 O   0  0
    6.4323   -6.8032    0.0000 C   0  0
    5.7110   -5.5564    0.0000 C   0  0
   10.0456   -5.9170    0.0000 C   0  0
    5.7110   -6.3807    0.0000 C   0  0
   14.0196   -5.1030    0.0000 C   0  0
   14.3013   -6.7344    0.0000 C   0  0
    5.0000   -5.1545    0.0000 C   0  0
   14.9401   -6.1986    0.0000 C   0  0
   14.7924   -5.4018    0.0000 C   0  0
  2  7  1  0
  3  1  1  0
  4  1  2  0
  5  2  2  0
  6  2  1  0
  7 13  1  0
  8  4  1  0
  9  3  1  0
 10  3  2  0
 11  5  1  0
 12  6  1  0
 13 18  1  0
 14  4  1  0
 15 13  2  0
 16 10  1  0
 17  9  2  0
 18 14  1  0
 19 16  2  0
 20 11  1  0
 21 12  1  0
 22 17  1  0
 23 21  2  0
 24 20  2  0
  8 10  1  0
 19 17  1  0
 11 12  2  0
 23 24  1  0
M  END
> <COMPOUND_ID>
DNDI1417625

$$$$

  SciTegic04051205032D

 26 29  0  0  0  0            999 V2000
    9.0020   -6.7912    0.0000 C   0  0
    9.8289   -6.7912    0.0000 C   0  0
    8.4908   -6.1512    0.0000 N   0  0
   10.3400   -6.1512    0.0000 C   0  0
    8.5905   -7.5018    0.0000 C   0  0
   10.2403   -7.5018    0.0000 C   0  0
    6.3256   -5.8520    0.0000 N   0  0
   11.1421   -6.2758    0.0000 C   0  0
    7.6638   -6.3257    0.0000 C   0  0
    9.0020   -8.2041    0.0000 C   0  0
   11.4538   -7.0530    0.0000 C   0  0
   11.6533   -5.6276    0.0000 C   0  0
    7.1235   -5.6982    0.0000 C   0  0
    9.8289   -8.2041    0.0000 C   0  0
   12.7836   -6.5294    0.0000 C   0  0
   12.4678   -5.7398    0.0000 C   0  0
   12.2642   -7.1777    0.0000 C   0  0
    8.5656   -8.9147    0.0000 F   0  0
    8.6654   -5.3616    0.0000 C   0  0
   13.6064   -6.6541    0.0000 F   0  0
   10.1655   -5.3616    0.0000 C   0  0
    6.0389   -6.6374    0.0000 C   0  0
    5.6732   -5.3533    0.0000 C   0  0
    9.4383   -5.0000    0.0000 C   0  0
    5.0000   -5.8146    0.0000 C   0  0
    5.2119   -6.6167    0.0000 C   0  0
  2  1  2  0
  3  1  1  0
  4  2  1  0
  5  1  1  0
  6  2  1  0
  7 13  1  0
  8  4  1  0
  9  3  1  0
 10  5  2  0
 11  8  2  0
 12  8  1  0
 13  9  1  0
 14 10  1  0
 15 17  2  0
 16 12  2  0
 17 11  1  0
 18 10  1  0
 19  3  1  0
 20 15  1  0
 21  4  1  0
 22  7  1  0
 23  7  1  0
 24 19  1  0
 25 23  1  0
 26 22  1  0
 14  6  2  0
 24 21  1  0
 15 16  1  0
 26 25  1  0
M  END
> <COMPOUND_ID>
DNDI1417626

$$$$

  SciTegic04051205032D

 25 28  0  0  0  0            999 V2000
    9.8268   -7.2690    0.0000 C   0  0
    8.5617   -6.8496    0.0000 C   0  0
    8.5617   -7.6713    0.0000 C   0  0
    9.3386   -6.5987    0.0000 C   0  0
    9.3386   -7.9291    0.0000 S   0  0
   10.6484   -7.1865    0.0000 C   0  0
    7.8431   -8.0838    0.0000 N   0  0
   10.9854   -6.4336    0.0000 N   0  0
    9.6858   -5.8388    0.0000 N   0  0
    7.1315   -7.6713    0.0000 C   0  0
    7.8431   -6.4370    0.0000 C   0  0
    7.1315   -6.8496    0.0000 C   0  0
   10.5075   -5.7598    0.0000 C   0  0
   11.1366   -7.8534    0.0000 N   0  0
    6.4233   -8.0838    0.0000 C   0  0
    5.7116   -6.8496    0.0000 O   0  0
    5.7116   -7.6713    0.0000 C   0  0
    6.4233   -6.4370    0.0000 C   0  0
   10.7997   -8.6063    0.0000 C   0  0
   10.8478   -5.0000    0.0000 C   0  0
    5.0000   -8.0838    0.0000 C   0  0
    5.7116   -8.5032    0.0000 C   0  0
   10.4627   -9.3627    0.0000 C   0  0
   11.5560   -8.9432    0.0000 C   0  0
   10.0399   -8.2695    0.0000 C   0  0
  2  4  1  0
  3  5  1  0
  4  1  2  0
  5  1  1  0
  6  1  1  0
  7  3  2  0
  8  6  2  0
  9  4  1  0
 10  7  1  0
 11  2  2  0
 12 11  1  0
 13  8  1  0
 14  6  1  0
 15 10  1  0
 16 18  1  0
 17 15  1  0
 18 12  1  0
 19 14  1  0
 20 13  1  0
 21 17  1  0
 22 17  1  0
 23 19  1  0
 24 19  1  0
 25 19  1  0
  2  3  1  0
 13  9  2  0
 12 10  2  0
 16 17  1  0
M  END
> <COMPOUND_ID>
DNDI1417627

$$$$

  SciTegic04051205032D

 24 27  0  0  0  0            999 V2000
    8.7499   -6.1902    0.0000 N   0  0
    8.1715   -5.6051    0.0000 C   0  0
    8.5372   -7.0046    0.0000 C   0  0
    7.3736   -5.8079    0.0000 C   0  0
    7.7426   -7.2075    0.0000 C   0  0
    7.1509   -6.6057    0.0000 C   0  0
    6.3431   -6.8285    0.0000 C   0  0
    9.5112   -6.0140    0.0000 N   0  0
    7.5166   -8.0087    0.0000 C   0  0
    6.7720   -5.2228    0.0000 C   0  0
    8.3311   -5.0000    0.0000 O   0  0
    9.1389   -7.6097    0.0000 O   0  0
    6.1170   -7.6330    0.0000 C   0  0
    5.7480   -6.2334    0.0000 C   0  0
    6.7121   -8.2114    0.0000 C   0  0
    5.9708   -5.4256    0.0000 C   0  0
   10.2559   -6.4628    0.0000 C   0  0
    5.0000   -6.4628    0.0000 Cl  0  0
    5.3291   -7.9156    0.0000 Cl  0  0
   10.9141   -5.9542    0.0000 C   0  0
   10.3855   -7.2839    0.0000 C   0  0
   11.7087   -6.2766    0.0000 C   0  0
   11.1535   -7.6164    0.0000 C   0  0
   11.8284   -7.0878    0.0000 C   0  0
  2  1  1  0
  3  1  1  0
  4  2  1  0
  5  3  1  0
  6  4  1  0
  7  6  2  0
  8  1  1  0
  9  5  2  0
 10  4  2  0
 11  2  2  0
 12  3  2  0
 13  7  1  0
 14 16  2  0
 15  9  1  0
 16 10  1  0
 17  8  1  0
 18 14  1  0
 19 13  1  0
 20 17  2  0
 21 17  1  0
 22 20  1  0
 23 21  2  0
 24 23  1  0
  5  6  1  0
 15 13  2  0
 14  7  1  0
 24 22  2  0
M  END
> <COMPOUND_ID>
DNDI1417628

$$$$

  SciTegic04051205032D

 25 27  0  0  0  0            999 V2000
    7.6173   -7.0036    0.0000 N   0  0
    7.3543   -7.7843    0.0000 C   0  0
    8.4355   -7.0036    0.0000 C   0  0
    8.0222   -8.2601    0.0000 N   0  0
    8.6985   -7.7843    0.0000 N   0  0
    6.5696   -8.0347    0.0000 C   0  0
   11.0403   -5.8390    0.0000 C   0  0
   11.3742   -6.5904    0.0000 C   0  0
   12.1924   -6.6822    0.0000 C   0  0
   10.2221   -5.7513    0.0000 C   0  0
    8.9239   -6.3316    0.0000 S   0  0
    6.4026   -8.8362    0.0000 C   0  0
   12.6808   -6.0060    0.0000 C   0  0
    9.7379   -6.4193    0.0000 C   0  0
   11.5245   -5.1670    0.0000 C   0  0
    9.8882   -5.0000    0.0000 O   0  0
   12.3427   -5.2546    0.0000 C   0  0
   12.5305   -7.4419    0.0000 O   0  0
   13.5073   -6.1020    0.0000 O   0  0
    5.9643   -7.4920    0.0000 C   0  0
    7.0204   -9.3872    0.0000 O   0  0
    5.6178   -9.0950    0.0000 C   0  0
    6.8534  -10.1970    0.0000 C   0  0
    5.1670   -7.7342    0.0000 C   0  0
    5.0000   -8.5440    0.0000 C   0  0
  2  1  2  0
  3  1  1  0
  4  2  1  0
  5  3  2  0
  6  2  1  0
  7 10  1  0
  8  7  2  0
  9  8  1  0
 10 14  1  0
 11  3  1  0
 12  6  1  0
 13 17  1  0
 14 11  1  0
 15  7  1  0
 16 10  2  0
 17 15  2  0
 18  9  1  0
 19 13  1  0
 20  6  2  0
 21 12  1  0
 22 12  2  0
 23 21  1  0
 24 20  1  0
 25 24  2  0
  5  4  1  0
 25 22  1  0
 13  9  2  0
M  END
> <COMPOUND_ID>
DNDI1417629

$$$$

  SciTegic04051205032D

 24 25  0  0  0  0            999 V2000
    6.5286   -6.5792    0.0000 N   0  0
    5.9839   -7.2258    0.0000 C   0  0
    7.3515   -6.7241    0.0000 C   0  0
    9.0247   -7.1317    0.0000 C   0  0
    8.4408   -7.7116    0.0000 N   0  0
   10.4197   -6.7476    0.0000 N   0  0
    7.6415   -7.5039    0.0000 N   0  0
    8.8053   -6.3401    0.0000 S   0  0
    7.8844   -6.0933    0.0000 S   0  0
    9.8319   -7.3433    0.0000 N   0  0
    5.1650   -7.0690    0.0000 O   0  0
    6.2818   -7.9977    0.0000 C   0  0
   11.2230   -6.9710    0.0000 C   0  0
   11.8186   -6.3911    0.0000 C   0  0
    6.9048   -8.0800    0.0000 C   0  0
    5.7410   -8.6364    0.0000 C   0  0
   12.6415   -6.6145    0.0000 C   0  0
   11.5991   -5.5917    0.0000 C   0  0
    7.2770   -8.8088    0.0000 C   0  0
    6.0427   -9.4240    0.0000 C   0  0
   13.2293   -6.0267    0.0000 C   0  0
   12.1948   -5.0000    0.0000 C   0  0
    6.8656   -9.5337    0.0000 C   0  0
   13.0020   -5.2194    0.0000 C   0  0
  2  1  1  0
  3  1  1  0
  4  5  1  0
  5  7  1  0
  6 10  1  0
  7  3  1  0
  8  4  2  0
  9  3  2  0
 10  4  1  0
 11  2  2  0
 12  2  1  0
 13  6  2  0
 14 13  1  0
 15 12  1  0
 16 12  2  0
 17 14  2  0
 18 14  1  0
 19 15  2  0
 20 16  1  0
 21 17  1  0
 22 18  2  0
 23 20  2  0
 24 22  1  0
 23 19  1  0
 24 21  2  0
M  END
> <COMPOUND_ID>
DNDI1417630

$$$$

  SciTegic04051205032D

 26 29  0  0  0  0            999 V2000
    6.9094   -6.1663    0.0000 C   0  0
    5.5596   -6.1663    0.0000 C   0  0
    6.2275   -5.0000    0.0000 C   0  0
    5.9547   -6.6790    0.0000 C   0  0
   11.9420   -6.5896    0.0000 N   0  0
    6.9094   -5.3951    0.0000 C   0  0
    6.4815   -7.0694    0.0000 C   0  0
    6.2275   -6.5520    0.0000 C   0  0
    5.0000   -6.8060    0.0000 C   0  0
    5.9547   -5.7525    0.0000 C   0  0
    5.5596   -5.3951    0.0000 C   0  0
   12.6662   -6.1852    0.0000 C   0  0
   13.3717   -6.5896    0.0000 C   0  0
   11.2317   -6.1758    0.0000 C   0  0
   10.5028   -6.5896    0.0000 C   0  0
    7.6338   -6.5803    0.0000 C   0  0
   10.5028   -7.4221    0.0000 O   0  0
    9.0636   -6.5803    0.0000 O   0  0
    9.7878   -6.1758    0.0000 C   0  0
   13.3717   -7.4221    0.0000 C   0  0
   14.0819   -6.1852    0.0000 C   0  0
   12.6662   -5.3716    0.0000 C   0  0
    8.3345   -6.1663    0.0000 C   0  0
   14.0819   -7.8454    0.0000 C   0  0
   14.8062   -6.5896    0.0000 C   0  0
   14.8062   -7.4221    0.0000 C   0  0
  2  8  1  0
  3  6  1  0
  4  7  1  0
  5 14  1  0
  6  1  1  0
  7  1  1  0
  8  1  1  0
  9  4  1  0
 10  4  1  0
 11  3  1  0
 12  5  1  0
 13 12  1  0
 14 15  1  0
 15 19  1  0
 16  1  1  0
 17 15  1  0
 18 23  1  0
 19 18  1  0
 20 13  2  0
 21 13  1  0
 22 12  1  0
 23 16  1  0
 24 20  1  0
 25 21  2  0
 26 25  1  0
 10  3  1  0
  9  2  1  0
 11  2  1  0
 26 24  2  0
M  END
> <COMPOUND_ID>
DNDI1417631

$$$$

  SciTegic04051205032D

 27 29  0  0  0  0            999 V2000
   11.4182   -6.6637    0.0000 C   0  0
   12.1318   -6.2406    0.0000 C   0  0
    9.9993   -7.4852    0.0000 C   0  0
    8.5679   -7.4893    0.0000 C   0  0
    9.2816   -7.9042    0.0000 C   0  0
    7.1450   -6.6637    0.0000 C   0  0
   10.7005   -6.2488    0.0000 C   0  0
   11.4265   -7.4852    0.0000 C   0  0
    9.9868   -6.6637    0.0000 C   0  0
    8.5639   -6.6637    0.0000 C   0  0
    7.8502   -7.9042    0.0000 C   0  0
   10.7129   -7.9042    0.0000 C   0  0
    7.1283   -7.4893    0.0000 C   0  0
    7.8460   -6.2488    0.0000 C   0  0
    6.4189   -6.2488    0.0000 C   0  0
    9.9993   -9.1364    0.0000 N   0  0
    9.2816   -8.7299    0.0000 C   0  0
   12.1318   -5.4149    0.0000 C   0  0
   12.8495   -6.6471    0.0000 C   0  0
   12.8454   -5.8298    0.0000 C   0  0
    6.4189   -5.4316    0.0000 C   0  0
    5.7136   -6.6637    0.0000 C   0  0
   12.8454   -5.0000    0.0000 C   0  0
   13.5631   -6.2406    0.0000 C   0  0
    5.7136   -5.0166    0.0000 C   0  0
    5.0000   -6.2488    0.0000 C   0  0
    5.0000   -5.4316    0.0000 C   0  0
  2  1  1  0
  3  9  1  0
  4  5  1  0
  5  3  1  0
  6 13  2  0
  7  1  1  0
  8  1  2  0
  9  7  2  0
 10  4  1  0
 11  4  2  0
 12  8  1  0
 13 11  1  0
 14 10  2  0
 15  6  1  0
 16 17  1  0
 17  5  1  0
 18  2  1  0
 19  2  1  0
 20  2  1  0
 21 15  1  0
 22 15  2  0
 23 18  1  0
 24 19  1  0
 25 21  2  0
 26 22  1  0
 27 26  2  0
 12  3  2  0
  6 14  1  0
 27 25  1  0
M  END
> <COMPOUND_ID>
DNDI1417632

$$$$

  SciTegic04051205032D

 25 28  0  0  0  0            999 V2000
    7.9547   -7.0269    0.0000 N   0  0
    7.9766   -5.6603    0.0000 C   0  0
    8.4702   -6.3381    0.0000 C   0  0
    7.1979   -6.7658    0.0000 C   0  0
    7.1979   -5.9301    0.0000 C   0  0
    8.2333   -5.1821    0.0000 C   0  0
    9.0075   -5.5572    0.0000 N   0  0
    8.2026   -7.8363    0.0000 C   0  0
    6.4653   -7.2067    0.0000 C   0  0
   10.5759   -6.0464    0.0000 N   0  0
    6.4763   -5.4980    0.0000 C   0  0
    7.6344   -8.4504    0.0000 C   0  0
    9.0229   -8.0227    0.0000 C   0  0
    5.7283   -5.9191    0.0000 C   0  0
    9.6130   -5.0000    0.0000 C   0  0
    9.1852   -6.3578    0.0000 C   0  0
   10.3983   -5.2479    0.0000 C   0  0
    9.9705   -6.6013    0.0000 C   0  0
    5.7283   -6.7855    0.0000 C   0  0
    8.6983   -9.4485    0.0000 C   0  0
    7.8779   -9.2598    0.0000 C   0  0
    9.2708   -8.8255    0.0000 C   0  0
    5.0000   -5.5002    0.0000 F   0  0
    8.9505  -10.2579    0.0000 Cl  0  0
   11.2998   -6.2591    0.0000 C   0  0
  2  3  2  0
  3  1  1  0
  4  1  1  0
  5  4  2  0
  6  2  1  0
  7  6  1  0
  8  1  1  0
  9  4  1  0
 10 17  1  0
 11  5  1  0
 12  8  1  0
 13  8  2  0
 14 19  1  0
 15  7  1  0
 16  7  1  0
 17 15  1  0
 18 16  1  0
 19  9  2  0
 20 21  1  0
 21 12  2  0
 22 13  1  0
 23 14  1  0
 24 20  1  0
 25 10  1  0
  2  5  1  0
 20 22  2  0
 14 11  2  0
 10 18  1  0
M  END
> <COMPOUND_ID>
DNDI1417633

$$$$

  SciTegic04051205032D

 25 27  0  0  0  0            999 V2000
    8.4733   -6.5742    0.0000 C   0  0
    9.8096   -7.0180    0.0000 C   0  0
    9.2740   -6.3943    0.0000 C   0  0
    8.2170   -7.3265    0.0000 C   0  0
    7.9367   -5.9302    0.0000 C   0  0
    9.5543   -7.7799    0.0000 C   0  0
    7.4029   -7.5034    0.0000 C   0  0
    7.1582   -6.0984    0.0000 C   0  0
    6.8614   -6.8817    0.0000 C   0  0
    9.5543   -5.6227    0.0000 N   0  0
   10.6025   -6.8700    0.0000 Cl  0  0
   10.0978   -8.3949    0.0000 C   0  0
    9.0100   -5.0000    0.0000 C   0  0
    7.1399   -8.2751    0.0000 O   0  0
    6.0404   -7.0180    0.0000 O   0  0
    8.2054   -5.1702    0.0000 C   0  0
    5.7716   -7.8003    0.0000 C   0  0
    6.2464   -8.6212    0.0000 C   0  0
    9.8599   -9.1946    0.0000 C   0  0
   10.9071   -8.2170    0.0000 C   0  0
    6.0202   -9.4045    0.0000 C   0  0
    5.0000   -8.0556    0.0000 C   0  0
   11.4525   -8.8185    0.0000 C   0  0
   10.4246   -9.7893    0.0000 C   0  0
   11.2253   -9.6104    0.0000 C   0  0
  2  3  1  0
  3  1  1  0
  4  1  1  0
  5  1  2  0
  6  2  2  0
  7  4  2  0
  8  5  1  0
  9  8  2  0
 10  3  1  0
 11  2  1  0
 12  6  1  0
 13 16  1  0
 14  7  1  0
 15  9  1  0
 16  5  1  0
 17 15  1  0
 18 14  1  0
 19 12  2  0
 20 12  1  0
 21 18  1  0
 22 17  1  0
 23 20  2  0
 24 19  1  0
 25 23  1  0
 13 10  1  0
  9  7  1  0
 24 25  2  0
M  END
> <COMPOUND_ID>
DNDI1417634

$$$$

  SciTegic04051205032D

 23 24  0  0  0  0            999 V2000
    7.2027   -7.0693    0.0000 N   0  0
    5.9028   -7.6044    0.0000 N   0  0
    6.4000   -6.9689    0.0000 C   0  0
    7.0244   -8.4762    0.0000 N   0  0
    7.5461   -7.8185    0.0000 C   0  0
    6.1993   -8.3536    0.0000 C   0  0
    7.6130   -6.3468    0.0000 O   0  0
   10.5363   -6.5831    0.0000 C   0  0
   11.1851   -6.0703    0.0000 C   0  0
    6.0767   -6.2085    0.0000 N   0  0
   10.6477   -7.3837    0.0000 C   0  0
    9.8116   -6.2331    0.0000 C   0  0
    5.6798   -9.0025    0.0000 N   0  0
   11.9544   -6.3713    0.0000 C   0  0
   11.4237   -7.6891    0.0000 C   0  0
    8.4358   -6.2599    0.0000 C   0  0
    8.2396   -7.3680    0.0000 C   0  0
    8.1013   -8.4428    0.0000 C   0  0
   11.0580   -5.2475    0.0000 Cl  0  0
   12.0815   -7.1763    0.0000 C   0  0
   11.5464   -8.5142    0.0000 Cl  0  0
    9.1181   -6.7102    0.0000 C   0  0
    9.1315   -7.5375    0.0000 C   0  0
  2  3  2  0
  3  1  1  0
  4  5  1  0
  5  1  1  0
  6  2  1  0
  7  1  1  0
  8 12  1  0
  9  8  2  0
 10  3  1  0
 11  8  1  0
 12 22  1  0
 13  6  1  0
 14  9  1  0
 15 11  2  0
 16  7  1  0
 17  5  1  0
 18  5  1  0
 19  9  1  0
 20 15  1  0
 21 15  1  0
 22 16  1  0
 23 22  1  0
  6  4  2  0
 20 14  2  0
M  END
> <COMPOUND_ID>
DNDI1417635

$$$$

  SciTegic04051205032D

 26 27  0  0  0  0            999 V2000
   11.4448   -6.2209    0.0000 C   0  0
   10.7261   -6.6095    0.0000 C   0  0
    7.8647   -7.4486    0.0000 C   0  0
   10.7261   -7.4486    0.0000 C   0  0
    9.2988   -7.4486    0.0000 N   0  0
    7.1494   -7.8682    0.0000 C   0  0
   12.1567   -6.6095    0.0000 C   0  0
    8.5766   -7.8682    0.0000 N   0  0
    7.8647   -6.6095    0.0000 O   0  0
   11.4448   -7.8682    0.0000 C   0  0
   10.0107   -7.8682    0.0000 C   0  0
   12.1567   -7.4486    0.0000 C   0  0
    6.4341   -7.4486    0.0000 C   0  0
   11.4448   -5.3990    0.0000 O   0  0
   10.0279   -6.1831    0.0000 O   0  0
    7.1494   -8.6867    0.0000 O   0  0
   12.8618   -6.1831    0.0000 O   0  0
    5.7119   -7.8442    0.0000 C   0  0
    6.4341   -6.6095    0.0000 C   0  0
   12.1396   -5.0000    0.0000 C   0  0
   10.0555   -5.3749    0.0000 C   0  0
    7.8303   -9.1510    0.0000 C   0  0
   13.5737   -6.5648    0.0000 C   0  0
    5.0000   -7.4486    0.0000 C   0  0
    5.7119   -6.1968    0.0000 C   0  0
    5.0000   -6.6095    0.0000 C   0  0
  2  1  2  0
  3  8  1  0
  4  2  1  0
  5 11  2  0
  6  3  1  0
  7  1  1  0
  8  5  1  0
  9  3  2  0
 10 12  1  0
 11  4  1  0
 12  7  2  0
 13  6  1  0
 14  1  1  0
 15  2  1  0
 16  6  1  0
 17  7  1  0
 18 13  1  0
 19 13  2  0
 20 14  1  0
 21 15  1  0
 22 16  1  0
 23 17  1  0
 24 18  2  0
 25 19  1  0
 26 25  2  0
 10  4  2  0
 24 26  1  0
M  END
> <COMPOUND_ID>
DNDI1417636

$$$$

  SciTegic04051205032D

 26 29  0  0  0  0            999 V2000
    7.1014   -6.5154    0.0000 C   0  0
    7.8156   -6.9366    0.0000 C   0  0
    9.2440   -6.9366    0.0000 N   0  0
    9.9582   -6.5154    0.0000 C   0  0
   10.6724   -6.9366    0.0000 C   0  0
    8.5298   -6.5154    0.0000 O   0  0
    6.2773   -6.8130    0.0000 C   0  0
    6.3735   -6.2773    0.0000 C   0  0
    7.5409   -5.8378    0.0000 C   0  0
   11.3866   -6.5154    0.0000 C   0  0
   12.1009   -6.9366    0.0000 C   0  0
    5.9156   -5.6776    0.0000 C   0  0
    7.0831   -5.1786    0.0000 C   0  0
    5.8057   -6.1537    0.0000 C   0  0
   12.1009   -7.7607    0.0000 C   0  0
    7.8156   -7.7607    0.0000 O   0  0
   10.6724   -7.7607    0.0000 C   0  0
   11.3866   -8.1636    0.0000 C   0  0
    5.0000   -5.9111    0.0000 C   0  0
    6.3323   -5.0000    0.0000 C   0  0
    6.2590   -5.4304    0.0000 C   0  0
    9.9582   -5.6914    0.0000 N   0  0
   12.8151   -6.5154    0.0000 O   0  0
   12.8151   -8.1636    0.0000 O   0  0
   13.5293   -6.9366    0.0000 C   0  0
   13.5293   -7.7607    0.0000 C   0  0
  2  1  1  0
  3  6  1  0
  4  3  2  0
  5  4  1  0
  6  2  1  0
  7  1  1  0
  8  1  1  0
  9  1  1  0
 10  5  1  0
 11 10  2  0
 12  8  1  0
 13  9  1  0
 14  7  1  0
 15 18  2  0
 16  2  2  0
 17  5  2  0
 18 17  1  0
 19 12  1  0
 20 13  1  0
 21 13  1  0
 22  4  1  0
 23 11  1  0
 24 15  1  0
 25 23  1  0
 26 24  1  0
 21 14  1  0
 20 12  1  0
 19 14  1  0
 15 11  1  0
M  END
> <COMPOUND_ID>
DNDI1417637

$$$$

  SciTegic04051205032D

 26 29  0  0  0  0            999 V2000
    7.1507   -7.9010    0.0000 C   0  0
    7.1507   -8.7220    0.0000 N   0  0
    7.8594   -7.4799    0.0000 N   0  0
    7.8594   -9.1389    0.0000 C   0  0
    7.8510   -6.6463    0.0000 C   0  0
    6.4297   -7.4841    0.0000 C   0  0
    7.1382   -6.2420    0.0000 C   0  0
    6.4297   -6.6588    0.0000 C   0  0
    7.8510   -9.9599    0.0000 C   0  0
    8.5679   -6.2379    0.0000 C   0  0
    9.2889   -6.6463    0.0000 N   0  0
    8.5679  -10.3684    0.0000 C   0  0
    8.5721   -8.7220    0.0000 N   0  0
    8.5679  -11.1979    0.0000 C   0  0
    9.2889  -11.6022    0.0000 Cl  0  0
    7.1382  -10.3684    0.0000 C   0  0
    7.1382  -11.1979    0.0000 C   0  0
    5.7127   -6.2462    0.0000 C   0  0
    5.7127   -7.9010    0.0000 C   0  0
    9.9976   -6.2212    0.0000 C   0  0
    8.5679   -5.4084    0.0000 C   0  0
    7.8510  -11.6063    0.0000 C   0  0
    5.0000   -6.6588    0.0000 C   0  0
    9.9934   -5.4042    0.0000 C   0  0
    5.0000   -7.4841    0.0000 C   0  0
    9.2723   -5.0000    0.0000 C   0  0
  2  1  1  0
  3  1  2  0
  4  2  2  0
  5  3  1  0
  6  1  1  0
  7  5  2  0
  8  6  1  0
  9  4  1  0
 10  5  1  0
 11 10  2  0
 12  9  1  0
 13  4  1  0
 14 12  2  0
 15 14  1  0
 16  9  2  0
 17 16  1  0
 18  8  2  0
 19  6  2  0
 20 11  1  0
 21 10  1  0
 22 17  2  0
 23 25  2  0
 24 20  2  0
 25 19  1  0
 26 21  2  0
  7  8  1  0
 23 18  1  0
 24 26  1  0
 22 14  1  0
M  END
> <COMPOUND_ID>
DNDI1417638

$$$$

  SciTegic04051205032D

 26 28  0  0  0  0            999 V2000
    5.6117   -7.4266    0.0000 N   0  0
   11.7537   -9.0729    0.0000 C   0  0
    6.3920   -7.6809    0.0000 C   0  0
   11.1660   -9.6606    0.0000 C   0  0
   11.5440   -8.2755    0.0000 C   0  0
    6.8800   -7.0210    0.0000 C   0  0
    6.3920   -6.3611    0.0000 C   0  0
    5.6117   -6.6085    0.0000 C   0  0
   10.3686   -9.4441    0.0000 C   0  0
   10.7295   -8.0624    0.0000 C   0  0
   10.1520   -8.6501    0.0000 C   0  0
   11.3894  -10.4614    0.0000 Cl  0  0
   12.5545   -9.2791    0.0000 O   0  0
   12.1249   -7.6844    0.0000 O   0  0
    8.9422   -7.7324    0.0000 N   0  0
    7.7083   -7.0210    0.0000 C   0  0
    9.3581   -8.4336    0.0000 C   0  0
    6.5707   -5.5500    0.0000 C   0  0
    5.0000   -6.0517    0.0000 C   0  0
    8.1208   -7.7324    0.0000 C   0  0
   12.7710  -10.0834    0.0000 C   0  0
   12.9189   -7.8974    0.0000 C   0  0
   13.5685  -10.2896    0.0000 C   0  0
    5.9589   -5.0000    0.0000 C   0  0
    5.1684   -5.2475    0.0000 C   0  0
    9.3581   -7.0210    0.0000 H   0  0
  2  5  2  0
  3  1  1  0
  4  9  2  0
  5 10  1  0
  6  3  2  0
  7  8  1  0
  8  1  1  0
  9 11  1  0
 10 11  2  0
 11 17  1  0
 12  4  1  0
 13  2  1  0
 14  5  1  0
 15 20  1  0
 16  6  1  0
 17 15  1  0
 18  7  2  0
 19  8  2  0
 20 16  1  0
 21 13  1  0
 22 14  1  0
 23 21  1  0
 24 25  2  0
 25 19  1  0
  7  6  1  0
 24 18  1  0
  2  4  1  0
 26 15  1  0
M  END
> <COMPOUND_ID>
DNDI1417639

$$$$

  SciTegic04051205032D

 22 24  0  0  0  0            999 V2000
    8.4541   -6.7414    0.0000 C   0  0
   12.5953   -6.0557    0.0000 C   0  0
    9.1306   -7.2318    0.0000 O   0  0
   13.3808   -6.2828    0.0000 C   0  0
    8.7174   -5.9695    0.0000 C   0  0
    9.8072   -6.7141    0.0000 C   0  0
   11.2013   -6.4054    0.0000 N   0  0
    9.5484   -5.9695    0.0000 C   0  0
    7.6731   -7.0456    0.0000 C   0  0
   13.7623   -7.0048    0.0000 O   0  0
   10.6155   -6.9548    0.0000 C   0  0
   12.0050   -6.6233    0.0000 N   0  0
   12.3818   -5.2475    0.0000 O   0  0
   13.9938   -5.7015    0.0000 C   0  0
   14.5796   -6.8822    0.0000 C   0  0
   14.6932   -6.0965    0.0000 C   0  0
    7.5368   -7.8448    0.0000 C   0  0
    7.0192   -6.5098    0.0000 C   0  0
    6.1111   -7.6132    0.0000 C   0  0
    6.2563   -6.7959    0.0000 C   0  0
    6.7694   -8.1399    0.0000 C   0  0
    5.3300   -7.9129    0.0000 Br  0  0
  2 12  1  0
  3  1  1  0
  4  2  1  0
  5  1  2  0
  6  3  1  0
  7 11  2  0
  8  5  1  0
  9  1  1  0
 10  4  1  0
 11  6  1  0
 12  7  1  0
 13  2  2  0
 14  4  2  0
 15 10  1  0
 16 14  1  0
 17  9  1  0
 18  9  2  0
 19 20  2  0
 20 18  1  0
 21 17  2  0
 22 19  1  0
  8  6  2  0
 19 21  1  0
 15 16  2  0
M  END
> <COMPOUND_ID>
DNDI1417640

$$$$

  SciTegic04051205032D

 26 28  0  0  0  0            999 V2000
    7.8285   -6.7176    0.0000 N   0  0
    6.4278   -6.6570    0.0000 N   0  0
    7.1354   -6.2844    0.0000 C   0  0
    7.0863   -7.9133    0.0000 N   0  0
    7.8199   -7.5436    0.0000 C   0  0
    6.4018   -7.4714    0.0000 C   0  0
    8.5679   -6.2960    0.0000 O   0  0
   11.3866   -6.4692    0.0000 C   0  0
   12.0856   -6.9053    0.0000 C   0  0
   11.4126   -5.6375    0.0000 C   0  0
   10.6502   -6.8505    0.0000 C   0  0
    7.1585   -5.4613    0.0000 N   0  0
    5.6798   -7.8469    0.0000 N   0  0
   12.0509   -7.7313    0.0000 C   0  0
   12.8105   -6.5241    0.0000 C   0  0
   10.7080   -5.1984    0.0000 C   0  0
    9.2062   -6.8187    0.0000 C   0  0
    9.9426   -6.4201    0.0000 C   0  0
    8.0654   -8.3262    0.0000 C   0  0
    8.6286   -7.4310    0.0000 C   0  0
   13.4863   -7.7833    0.0000 C   0  0
   12.1376   -5.2476    0.0000 F   0  0
    9.9773   -5.5826    0.0000 C   0  0
   13.5210   -6.9515    0.0000 C   0  0
   12.7585   -8.1674    0.0000 C   0  0
   14.1881   -8.2194    0.0000 F   0  0
  2  3  2  0
  3  1  1  0
  4  5  1  0
  5  1  1  0
  6  2  1  0
  7  1  1  0
  8 11  2  0
  9  8  1  0
 10 16  2  0
 11 18  1  0
 12  3  1  0
 13  6  1  0
 14  9  1  0
 15  9  2  0
 16 23  1  0
 17  7  1  0
 18 17  1  0
 19  5  1  0
 20  5  1  0
 21 25  1  0
 22 10  1  0
 23 18  2  0
 24 15  1  0
 25 14  2  0
 26 21  1  0
  6  4  2  0
 10  8  1  0
 21 24  2  0
M  END
> <COMPOUND_ID>
DNDI1417641

$$$$

  SciTegic04051205032D

 27 30  0  0  0  0            999 V2000
    7.1363   -8.6980    0.0000 N   0  0
    7.1446   -9.5350    0.0000 C   0  0
    7.8609   -9.9431    0.0000 N   0  0
    7.8442   -8.3065    0.0000 C   0  0
    8.5605   -9.5350    0.0000 C   0  0
    8.5605   -8.6980    0.0000 C   0  0
    9.2851   -9.9431    0.0000 C   0  0
    6.4242   -9.9431    0.0000 C   0  0
    7.8442   -7.4986    0.0000 C   0  0
   10.0180   -9.5350    0.0000 C   0  0
    8.5605   -7.0864    0.0000 C   0  0
    5.7204  -11.1716    0.0000 N   0  0
    6.4242  -10.7593    0.0000 C   0  0
    8.5563   -6.2451    0.0000 C   0  0
   10.0305   -8.6980    0.0000 O   0  0
    9.2851  -10.7593    0.0000 C   0  0
    9.2684   -5.8245    0.0000 O   0  0
    5.7121   -9.5308    0.0000 C   0  0
    7.1113   -7.0864    0.0000 C   0  0
    7.1113   -6.2451    0.0000 C   0  0
    5.0000  -10.7676    0.0000 C   0  0
   10.7218   -9.9431    0.0000 C   0  0
    7.8192   -5.8453    0.0000 C   0  0
    9.2602   -5.0000    0.0000 C   0  0
    5.0000   -9.9431    0.0000 C   0  0
    9.9972  -11.1716    0.0000 C   0  0
   10.7094  -10.7593    0.0000 C   0  0
  2  1  1  0
  3  2  1  0
  4  1  2  0
  5  6  1  0
  6  4  1  0
  7  5  1  0
  8  2  1  0
  9  4  1  0
 10  7  2  0
 11  9  2  0
 12 13  2  0
 13  8  1  0
 14 11  1  0
 15 10  1  0
 16  7  1  0
 17 14  1  0
 18  8  2  0
 19  9  1  0
 20 19  2  0
 21 25  2  0
 22 10  1  0
 23 20  1  0
 24 17  1  0
 25 18  1  0
 26 16  2  0
 27 26  1  0
  5  3  1  0
 14 23  2  0
 12 21  1  0
 27 22  2  0
M  END
> <COMPOUND_ID>
DNDI1417642

$$$$

  SciTegic04051205032D

 24 26  0  0  0  0            999 V2000
    8.7909   -7.6465    0.0000 C   0  0
    7.9798   -7.4815    0.0000 N   0  0
    5.7114  -10.3788    0.0000 S   0  0
    7.8973   -6.6566    0.0000 C   0  0
    9.1346   -8.3991    0.0000 N   0  0
    8.6500   -9.0693    0.0000 C   0  0
    9.2171   -6.9350    0.0000 S   0  0
    8.6603   -6.3094    0.0000 C   0  0
    6.0998   -9.7189    0.0000 C   0  0
    7.2581   -9.0796    0.0000 C   0  0
    6.8662   -9.7292    0.0000 C   0  0
    7.1756   -6.2476    0.0000 C   0  0
    6.4297  -10.6331    0.0000 O   0  0
    5.0000  -10.0969    0.0000 O   0  0
    6.4538   -6.6600    0.0000 N   0  0
    8.8837   -9.7876    0.0000 O   0  0
    5.4227  -11.1074    0.0000 C   0  0
    5.7321   -9.0590    0.0000 C   0  0
    6.8869   -8.4094    0.0000 C   0  0
    6.1136   -8.3991    0.0000 C   0  0
    5.7321   -6.2476    0.0000 C   0  0
    7.1824   -5.4159    0.0000 C   0  0
    5.7321   -5.4159    0.0000 C   0  0
    6.4607   -5.0000    0.0000 C   0  0
  2  1  2  0
  3  9  1  0
  4  2  1  0
  5  1  1  0
  6  5  1  0
  7  1  1  0
  8  7  1  0
  9 11  2  0
 10  6  1  0
 11 10  1  0
 12  4  1  0
 13  3  2  0
 14  3  2  0
 15 12  1  0
 16  6  2  0
 17  3  1  0
 18 20  2  0
 19 10  2  0
 20 19  1  0
 21 15  2  0
 22 12  2  0
 23 24  2  0
 24 22  1  0
  4  8  2  0
  9 18  1  0
 23 21  1  0
M  END
> <COMPOUND_ID>
DNDI1417643

$$$$

  SciTegic04051205032D

 26 29  0  0  0  0            999 V2000
    9.1333   -8.3946    0.0000 N   0  0
    8.4522   -7.9336    0.0000 C   0  0
    8.6932   -7.1373    0.0000 N   0  0
    9.7880   -7.9179    0.0000 C   0  0
    9.5104   -7.1373    0.0000 S   0  0
   10.5791   -8.1850    0.0000 N   0  0
    7.6507   -8.1064    0.0000 C   0  0
    8.2375   -6.4301    0.0000 C   0  0
    7.3992   -8.8765    0.0000 C   0  0
    7.1059   -7.4988    0.0000 C   0  0
   11.1710   -7.6245    0.0000 C   0  0
    6.0530   -8.4365    0.0000 C   0  0
    6.3148   -7.6664    0.0000 C   0  0
    6.6030   -9.0390    0.0000 C   0  0
    5.2357   -8.6461    0.0000 O   0  0
    7.3992   -6.5087    0.0000 C   0  0
    8.6146   -5.7072    0.0000 C   0  0
   11.0192   -6.8073    0.0000 C   0  0
   11.9621   -7.8760    0.0000 C   0  0
    5.0000   -9.4790    0.0000 C   0  0
    8.1536   -5.0000    0.0000 C   0  0
    6.9330   -5.8015    0.0000 C   0  0
   12.5593   -7.3102    0.0000 C   0  0
   11.6111   -6.2573    0.0000 C   0  0
   12.4022   -6.5244    0.0000 C   0  0
    7.3364   -5.0890    0.0000 C   0  0
  2  1  2  0
  3  2  1  0
  4  1  1  0
  5  4  1  0
  6  4  2  0
  7  2  1  0
  8  3  1  0
  9  7  1  0
 10  7  2  0
 11  6  1  0
 12 13  2  0
 13 10  1  0
 14  9  2  0
 15 12  1  0
 16  8  2  0
 17  8  1  0
 18 11  2  0
 19 11  1  0
 20 15  1  0
 21 17  2  0
 22 16  1  0
 23 19  2  0
 24 18  1  0
 25 23  1  0
 26 21  1  0
  5  3  1  0
 14 12  1  0
 24 25  2  0
 22 26  2  0
M  END
> <COMPOUND_ID>
DNDI1417644

$$$$

  SciTegic04051205032D

 26 29  0  0  0  0            999 V2000
    7.1504   -7.9005    0.0000 C   0  0
    7.8630   -7.4837    0.0000 N   0  0
    7.1463   -8.7256    0.0000 N   0  0
    7.8589   -9.1382    0.0000 C   0  0
    7.8589   -6.6586    0.0000 C   0  0
    6.4336   -7.4837    0.0000 C   0  0
    7.1379   -6.2460    0.0000 C   0  0
    6.4336   -6.6628    0.0000 C   0  0
    7.8505   -9.9633    0.0000 C   0  0
    8.5631   -6.2377    0.0000 C   0  0
    9.2841   -6.6461    0.0000 N   0  0
    8.5715   -8.7256    0.0000 O   0  0
    8.5631  -10.3759    0.0000 C   0  0
    8.5715  -11.1968    0.0000 C   0  0
    9.2841  -11.6053    0.0000 Cl  0  0
    7.1379  -10.3759    0.0000 C   0  0
    7.1379  -11.2010    0.0000 C   0  0
    5.7126   -6.2460    0.0000 C   0  0
    5.7126   -7.9047    0.0000 C   0  0
    9.9967   -6.2377    0.0000 C   0  0
    8.5631   -5.4208    0.0000 C   0  0
    7.8505  -11.6094    0.0000 C   0  0
    5.0000   -6.6670    0.0000 C   0  0
    9.9883   -5.4083    0.0000 C   0  0
    5.0000   -7.4962    0.0000 C   0  0
    9.2716   -5.0000    0.0000 C   0  0
  2  1  2  0
  3  1  1  0
  4  3  1  0
  5  2  1  0
  6  1  1  0
  7  5  2  0
  8  6  1  0
  9  4  1  0
 10  5  1  0
 11 10  2  0
 12  4  2  0
 13  9  1  0
 14 13  2  0
 15 14  1  0
 16  9  2  0
 17 16  1  0
 18  8  2  0
 19  6  2  0
 20 11  1  0
 21 10  1  0
 22 17  2  0
 23 25  2  0
 24 20  2  0
 25 19  1  0
 26 21  2  0
  7  8  1  0
 23 18  1  0
 24 26  1  0
 22 14  1  0
M  END
> <COMPOUND_ID>
DNDI1417645

$$$$

  SciTegic04051205032D

 25 27  0  0  0  0            999 V2000
    8.9732   -7.3315    0.0000 C   0  0
    8.1752   -7.1154    0.0000 C   0  0
    9.1893   -8.1295    0.0000 C   0  0
    9.5592   -6.7455    0.0000 O   0  0
    7.5934   -7.7056    0.0000 C   0  0
    8.6075   -8.7113    0.0000 C   0  0
    7.8095   -8.5035    0.0000 C   0  0
    6.4006   -9.0895    0.0000 N   0  0
    7.9550   -6.3174    0.0000 Cl  0  0
   10.3489   -6.9657    0.0000 C   0  0
    7.2193   -9.0895    0.0000 C   0  0
    9.9873   -8.3414    0.0000 O   0  0
   10.9349   -6.3797    0.0000 C   0  0
    5.9850   -9.8002    0.0000 C   0  0
   10.1951   -9.1394    0.0000 C   0  0
   10.7271   -5.5860    0.0000 C   0  0
   11.7328   -6.5917    0.0000 C   0  0
    6.3216  -10.5566    0.0000 C   0  0
    5.1621   -9.8875    0.0000 C   0  0
   10.9930   -9.3514    0.0000 C   0  0
   12.3230   -6.0099    0.0000 C   0  0
   11.3089   -5.0000    0.0000 C   0  0
    5.7149  -11.0969    0.0000 C   0  0
    5.0000  -10.6937    0.0000 C   0  0
   12.1069   -5.2119    0.0000 C   0  0
  2  1  2  0
  3  1  1  0
  4  1  1  0
  5  2  1  0
  6  3  2  0
  7  5  2  0
  8 11  1  0
  9  2  1  0
 10  4  1  0
 11  7  1  0
 12  3  1  0
 13 10  1  0
 14  8  1  0
 15 12  1  0
 16 13  2  0
 17 13  1  0
 18 14  1  0
 19 14  1  0
 20 15  1  0
 21 17  2  0
 22 16  1  0
 23 18  1  0
 24 19  1  0
 25 22  2  0
  7  6  1  0
 25 21  1  0
 24 23  1  0
M  END
> <COMPOUND_ID>
DNDI1417646

$$$$

  SciTegic04051205032D

 25 28  0  0  0  0            999 V2000
    7.8614   -7.0534    0.0000 C   0  0
    8.5819   -8.2987    0.0000 N   0  0
    7.1449   -7.4657    0.0000 C   0  0
    6.4327   -7.0534    0.0000 C   0  0
    7.1449   -8.2987    0.0000 O   0  0
    6.4327   -6.2370    0.0000 C   0  0
    9.2316   -8.7485    0.0000 C   0  0
   10.6602   -9.5774    0.0000 N   0  0
    8.5819   -7.4657    0.0000 C   0  0
    7.1449   -5.8164    0.0000 C   0  0
    7.8614   -8.7152    0.0000 C   0  0
    7.8614   -6.2370    0.0000 C   0  0
   10.6602   -8.7485    0.0000 C   0  0
    9.9438   -9.9855    0.0000 C   0  0
    9.2316   -9.5774    0.0000 C   0  0
    9.9438   -8.3362    0.0000 C   0  0
    5.7247   -7.4657    0.0000 N   0  0
    7.1449   -5.0000    0.0000 Cl  0  0
    5.7247   -5.8164    0.0000 C   0  0
    9.3608  -10.5645    0.0000 C   0  0
   10.5311  -10.5645    0.0000 C   0  0
   10.6478   -7.9156    0.0000 C   0  0
   11.4932   -8.7485    0.0000 C   0  0
    5.0000   -7.0534    0.0000 C   0  0
    5.0000   -6.2370    0.0000 C   0  0
  2  9  1  0
  3  1  1  0
  4  3  2  0
  5  3  1  0
  6 10  2  0
  7  2  1  0
  8 13  1  0
  9  1  1  0
 10 12  1  0
 11  2  1  0
 12  1  2  0
 13 16  1  0
 14 15  1  0
 15  7  1  0
 16  7  1  0
 17  4  1  0
 18 10  1  0
 19  6  1  0
 20 14  1  0
 21 14  1  0
 22 13  1  0
 23 13  1  0
 24 17  2  0
 25 19  2  0
  6  4  1  0
 11  5  1  0
 25 24  1  0
  8 14  1  0
M  END
> <COMPOUND_ID>
DNDI1417647

$$$$

  SciTegic04051205032D

 26 27  0  0  0  0            999 V2000
    7.8575   -6.4748    0.0000 C   0  0
    8.5719   -6.8961    0.0000 C   0  0
    7.1432   -6.8961    0.0000 C   0  0
   10.0007   -6.8961    0.0000 N   0  0
   10.7151   -6.4748    0.0000 C   0  0
   11.4295   -6.8961    0.0000 C   0  0
    9.2863   -6.4748    0.0000 O   0  0
    7.8575   -5.6505    0.0000 C   0  0
   12.1301   -6.4748    0.0000 C   0  0
    6.4288   -6.4748    0.0000 C   0  0
   12.8582   -6.8961    0.0000 C   0  0
   12.8582   -7.7204    0.0000 C   0  0
    8.5719   -7.7204    0.0000 O   0  0
   11.4295   -7.7204    0.0000 C   0  0
   12.1301   -8.1234    0.0000 C   0  0
   10.7151   -5.6505    0.0000 N   0  0
    6.4288   -5.6505    0.0000 C   0  0
    7.1432   -5.2475    0.0000 C   0  0
    7.1432   -7.7204    0.0000 O   0  0
   13.5726   -6.4748    0.0000 O   0  0
   13.5726   -8.1234    0.0000 O   0  0
    5.7144   -5.2475    0.0000 O   0  0
    6.4288   -8.1234    0.0000 C   0  0
   14.2870   -6.8961    0.0000 C   0  0
   14.2870   -7.7204    0.0000 C   0  0
    5.0000   -5.6505    0.0000 C   0  0
  2  1  1  0
  3  1  1  0
  4  7  1  0
  5  4  2  0
  6  5  1  0
  7  2  1  0
  8  1  2  0
  9  6  1  0
 10  3  2  0
 11  9  2  0
 12 15  2  0
 13  2  2  0
 14  6  2  0
 15 14  1  0
 16  5  1  0
 17 18  2  0
 18  8  1  0
 19  3  1  0
 20 11  1  0
 21 12  1  0
 22 17  1  0
 23 19  1  0
 24 20  1  0
 25 21  1  0
 26 22  1  0
 10 17  1  0
 11 12  1  0
M  END
> <COMPOUND_ID>
DNDI1417648

$$$$

  SciTegic04051205032D

 27 30  0  0  0  0            999 V2000
    8.6361   -6.3631    0.0000 C   0  0
    8.9939   -7.1033    0.0000 C   0  0
   11.5567   -7.1279    0.0000 C   0  0
    7.8065   -6.1966    0.0000 O   0  0
    6.2953   -5.4256    0.0000 N   0  0
    7.7047   -5.3947    0.0000 C   0  0
    6.2244   -6.2551    0.0000 N   0  0
    9.0154   -5.6415    0.0000 C   0  0
   12.3987   -7.1279    0.0000 C   0  0
    8.4634   -5.0370    0.0000 C   0  0
    6.9954   -5.0000    0.0000 C   0  0
   10.2059   -6.3909    0.0000 N   0  0
   11.1311   -7.8650    0.0000 C   0  0
    5.0000   -5.7370    0.0000 C   0  0
    5.5305   -5.0894    0.0000 C   0  0
    9.8050   -7.0940    0.0000 N   0  0
   11.1219   -6.3909    0.0000 C   0  0
    8.5282   -7.7941    0.0000 O   0  0
    5.4287   -6.4155    0.0000 C   0  0
   12.8181   -7.8650    0.0000 C   0  0
   11.5567   -8.6114    0.0000 C   0  0
   12.3987   -8.5990    0.0000 C   0  0
   10.6253   -7.8712    0.0000 O   0  0
   12.8181   -6.3909    0.0000 C   0  0
   13.6600   -7.8650    0.0000 C   0  0
   13.6600   -6.3909    0.0000 C   0  0
   14.0826   -7.1279    0.0000 C   0  0
  2  1  1  0
  3 17  1  0
  4  1  1  0
  5 11  1  0
  6  4  1  0
  7  5  1  0
  8  1  2  0
  9  3  1  0
 10  8  1  0
 11  6  1  0
 12 16  1  0
 13  3  2  0
 14 15  2  0
 15  5  1  0
 16  2  1  0
 17 12  2  0
 18  2  2  0
 19  7  2  0
 20  9  2  0
 21 13  1  0
 22 21  2  0
 23 13  1  0
 24  9  1  0
 25 20  1  0
 26 24  2  0
 27 26  1  0
 10  6  2  0
 19 14  1  0
 22 20  1  0
 27 25  2  0
M  END
> <COMPOUND_ID>
DNDI1417649

$$$$

  SciTegic04051205032D

 27 30  0  0  0  0            999 V2000
    6.2652   -8.7107    0.0000 C   0  0
    6.2652   -7.8846    0.0000 C   0  0
    6.9716   -7.4888    0.0000 N   0  0
    6.9716   -9.1186    0.0000 N   0  0
    7.6971   -7.8846    0.0000 C   0  0
    7.6971   -8.7107    0.0000 C   0  0
    5.4946   -8.9710    0.0000 N   0  0
    5.4946   -7.6346    0.0000 N   0  0
    5.0000   -8.3115    0.0000 O   0  0
    8.4052   -7.4888    0.0000 N   0  0
    8.4052   -9.1186    0.0000 N   0  0
   10.5383   -8.7333    0.0000 C   0  0
    8.4052   -6.6644    0.0000 C   0  0
    9.1029   -8.7107    0.0000 C   0  0
    9.7954   -9.1342    0.0000 C   0  0
   10.5383   -7.9106    0.0000 C   0  0
    9.1324   -6.2635    0.0000 C   0  0
    9.8111   -7.4888    0.0000 C   0  0
    9.1029   -7.8846    0.0000 C   0  0
   11.2169   -9.1498    0.0000 C   0  0
    7.6815   -6.2392    0.0000 C   0  0
   11.2464   -7.4888    0.0000 C   0  0
    9.1324   -5.4408    0.0000 C   0  0
    9.8527   -6.6766    0.0000 C   0  0
    9.8405   -5.0000    0.0000 C   0  0
   10.5747   -6.2809    0.0000 C   0  0
   10.5747   -5.4148    0.0000 C   0  0
  2  1  1  0
  3  2  1  0
  4  1  1  0
  5  6  1  0
  6  4  2  0
  7  1  2  0
  8  2  2  0
  9  7  1  0
 10  5  1  0
 11  6  1  0
 12 15  2  0
 13 10  1  0
 14 11  1  0
 15 14  1  0
 16 18  2  0
 17 13  1  0
 18 19  1  0
 19 14  2  0
 20 12  1  0
 21 13  1  0
 22 16  1  0
 23 17  1  0
 24 17  2  0
 25 23  2  0
 26 24  1  0
 27 26  2  0
  9  8  1  0
  3  5  2  0
 12 16  1  0
 27 25  1  0
M  END
> <COMPOUND_ID>
DNDI1417650

$$$$

  SciTegic04051205032D

 27 30  0  0  0  0            999 V2000
    7.1443   -9.5379    0.0000 C   0  0
    7.1443   -8.7068    0.0000 N   0  0
    7.8548   -9.9493    0.0000 N   0  0
    8.5654   -9.5379    0.0000 C   0  0
    7.8548   -8.2954    0.0000 C   0  0
    6.4295   -9.9493    0.0000 C   0  0
    8.5654   -8.7068    0.0000 C   0  0
    9.2760   -9.9493    0.0000 C   0  0
    7.8548   -7.4726    0.0000 C   0  0
    6.4295  -10.7762    0.0000 C   0  0
    9.9949   -9.5379    0.0000 C   0  0
    7.1401   -7.0612    0.0000 C   0  0
    8.5654   -7.0612    0.0000 C   0  0
    7.1443  -11.2001    0.0000 F   0  0
    7.1401   -6.2342    0.0000 C   0  0
    8.5654   -6.2342    0.0000 C   0  0
    7.8548   -5.8228    0.0000 C   0  0
    9.9949   -8.7151    0.0000 O   0  0
    5.7189   -9.5379    0.0000 C   0  0
    9.2760  -10.7762    0.0000 C   0  0
    5.7189  -11.1876    0.0000 C   0  0
   10.7097   -9.9493    0.0000 C   0  0
    7.8631   -5.0000    0.0000 C   0  0
    5.0000   -9.9493    0.0000 C   0  0
    9.9866  -11.1876    0.0000 C   0  0
    5.0000  -10.7762    0.0000 C   0  0
   10.7097  -10.7762    0.0000 C   0  0
  2  1  1  0
  3  1  1  0
  4  3  1  0
  5  2  2  0
  6  1  1  0
  7  4  1  0
  8  4  1  0
  9  5  1  0
 10  6  1  0
 11  8  2  0
 12  9  1  0
 13  9  2  0
 14 10  1  0
 15 12  2  0
 16 13  1  0
 17 16  2  0
 18 11  1  0
 19  6  2  0
 20  8  1  0
 21 10  2  0
 22 11  1  0
 23 17  1  0
 24 19  1  0
 25 20  2  0
 26 24  2  0
 27 25  1  0
  7  5  1  0
 26 21  1  0
 22 27  2  0
 17 15  1  0
M  END
> <COMPOUND_ID>
DNDI1417651

$$$$

  SciTegic04051205032D

 27 29  0  0  0  0            999 V2000
   11.5704   -5.7164    0.0000 C   0  0
   14.3539   -6.4407    0.0000 N   0  0
    8.2819   -5.7282    0.0000 C   0  0
    7.4703   -5.7282    0.0000 C   0  0
   11.9658   -6.4407    0.0000 N   0  0
   13.9428   -7.1440    0.0000 C   0  0
   13.9428   -5.7164    0.0000 C   0  0
   12.7018   -6.4407    0.0000 C   0  0
   10.7444   -5.7164    0.0000 C   0  0
   13.1403   -5.7164    0.0000 C   0  0
   13.1154   -7.1440    0.0000 C   0  0
   11.9658   -5.0000    0.0000 O   0  0
    9.0923   -5.7164    0.0000 C   0  0
   10.3320   -6.4407    0.0000 C   0  0
   10.3320   -5.0118    0.0000 C   0  0
    6.6586   -5.7282    0.0000 C   0  0
    9.5099   -6.4407    0.0000 C   0  0
    9.5099   -5.0118    0.0000 C   0  0
   14.8080   -5.7164    0.0000 C   0  0
   14.8862   -7.1440    0.0000 C   0  0
   13.5109   -5.0000    0.0000 C   0  0
   13.5552   -7.8461    0.0000 C   0  0
    6.2410   -5.0118    0.0000 C   0  0
    6.2371   -6.4407    0.0000 C   0  0
    5.4176   -6.4407    0.0000 C   0  0
    5.4293   -5.0118    0.0000 C   0  0
    5.0000   -5.7282    0.0000 C   0  0
  2  6  1  0
  3 13  1  0
  4  3  3  0
  5  1  1  0
  6 11  1  0
  7 10  1  0
  8  5  1  0
  9  1  1  0
 10  8  1  0
 11  8  1  0
 12  1  2  0
 13 18  1  0
 14  9  2  0
 15  9  1  0
 16  4  1  0
 17 14  1  0
 18 15  2  0
 19  7  1  0
 20  6  1  0
 21  7  1  0
 22  6  1  0
 23 16  1  0
 24 16  2  0
 25 24  1  0
 26 23  2  0
 27 25  2  0
 13 17  2  0
  7  2  1  0
 26 27  1  0
M  END
> <COMPOUND_ID>
DNDI1417652

$$$$

  SciTegic04051205032D

 24 27  0  0  0  0            999 V2000
    8.0122   -6.5920    0.0000 N   0  0
    8.6861   -6.1003    0.0000 C   0  0
    7.3485   -6.1072    0.0000 C   0  0
    7.6064   -5.3267    0.0000 N   0  0
    9.3566   -6.5852    0.0000 S   0  0
    8.2769   -7.3795    0.0000 N   0  0
    8.4282   -5.3267    0.0000 N   0  0
    9.1056   -7.3760    0.0000 C   0  0
    6.5645   -6.3651    0.0000 C   0  0
    5.9524   -5.8115    0.0000 C   0  0
    9.5938   -8.0362    0.0000 C   0  0
   10.4122   -7.9400    0.0000 O   0  0
   10.9074   -8.6036    0.0000 C   0  0
   11.8977   -9.9171    0.0000 C   0  0
    6.1313   -5.0000    0.0000 Cl  0  0
    6.3960   -7.1697    0.0000 C   0  0
   12.3963  -10.5808    0.0000 F   0  0
   10.5841   -9.3636    0.0000 C   0  0
   11.7258   -8.5004    0.0000 C   0  0
   12.2209   -9.1572    0.0000 C   0  0
   11.0793  -10.0203    0.0000 C   0  0
    5.1719   -6.0626    0.0000 C   0  0
    5.6189   -7.4207    0.0000 C   0  0
    5.0000   -6.8672    0.0000 C   0  0
  2  1  1  0
  3  1  1  0
  4  3  2  0
  5  2  1  0
  6  1  1  0
  7  2  2  0
  8  6  2  0
  9  3  1  0
 10  9  2  0
 11  8  1  0
 12 11  1  0
 13 12  1  0
 14 20  1  0
 15 10  1  0
 16  9  1  0
 17 14  1  0
 18 13  2  0
 19 13  1  0
 20 19  2  0
 21 18  1  0
 22 10  1  0
 23 16  2  0
 24 23  1  0
  8  5  1  0
  7  4  1  0
 22 24  2  0
 21 14  2  0
M  END
> <COMPOUND_ID>
DNDI1417653

$$$$

  SciTegic04051205032D

 24 26  0  0  0  0            999 V2000
    7.7666   -7.0517    0.0000 C   0  0
    7.0448   -7.4744    0.0000 C   0  0
    8.4608   -7.4608    0.0000 C   0  0
    7.0448   -8.2890    0.0000 N   0  0
    9.1757   -7.0517    0.0000 C   0  0
    7.7666   -6.2304    0.0000 C   0  0
    9.1722   -6.2304    0.0000 C   0  0
    6.3300   -8.6980    0.0000 C   0  0
    8.4608   -5.8111    0.0000 C   0  0
    6.3163   -7.0517    0.0000 C   0  0
    5.5601   -7.4023    0.0000 S   0  0
    9.8871   -7.4608    0.0000 N   0  0
    6.2200   -6.2304    0.0000 C   0  0
    5.6083   -8.2856    0.0000 O   0  0
    5.0000   -6.7768    0.0000 C   0  0
    5.4055   -6.0689    0.0000 C   0  0
    6.3163   -9.5365    0.0000 C   0  0
    8.4746   -8.2856    0.0000 O   0  0
    8.4608   -5.0000    0.0000 Cl  0  0
    9.8871   -5.8111    0.0000 C   0  0
   10.5985   -7.0517    0.0000 C   0  0
    5.5945   -9.9524    0.0000 C   0  0
    7.0311   -9.9421    0.0000 C   0  0
   10.5985   -6.2304    0.0000 C   0  0
  2  1  1  0
  3  1  2  0
  4  2  1  0
  5  3  1  0
  6  1  1  0
  7  9  1  0
  8  4  1  0
  9  6  2  0
 10  2  1  0
 11 10  1  0
 12  5  2  0
 13 10  2  0
 14  8  2  0
 15 11  1  0
 16 13  1  0
 17  8  1  0
 18  3  1  0
 19  9  1  0
 20  7  2  0
 21 12  1  0
 22 17  1  0
 23 17  1  0
 24 20  1  0
  5  7  1  0
 15 16  2  0
 24 21  2  0
M  END
> <COMPOUND_ID>
DNDI1417654

$$$$

  SciTegic04051205032D

 24 27  0  0  0  0            999 V2000
    8.2503   -7.7107    0.0000 C   0  0
    8.0704   -6.9031    0.0000 C   0  0
    7.3314   -6.5500    0.0000 S   0  0
    7.7075   -8.3615    0.0000 C   0  0
    8.1685   -9.0449    0.0000 N   0  0
    6.9031   -8.3615    0.0000 C   0  0
    8.6819   -6.3538    0.0000 C   0  0
    6.5957   -6.9096    0.0000 C   0  0
    6.3963   -7.7009    0.0000 C   0  0
    9.4569   -6.6121    0.0000 C   0  0
    9.0449   -7.9430    0.0000 C   0  0
    9.6596   -7.4034    0.0000 C   0  0
    9.0383  -10.4902    0.0000 N   0  0
    8.5250   -5.5428    0.0000 O   0  0
   10.4411   -7.6356    0.0000 Cl  0  0
    7.7729   -9.7708    0.0000 C   0  0
    8.9926   -9.0547    0.0000 C   0  0
    9.4340   -9.7152    0.0000 C   0  0
    8.2176  -10.4902    0.0000 C   0  0
    6.0104   -6.3309    0.0000 C   0  0
    5.6147   -7.9332    0.0000 C   0  0
    9.1364   -5.0000    0.0000 C   0  0
    5.0000   -7.3544    0.0000 C   0  0
    5.1962   -6.5663    0.0000 C   0  0
  2  1  1  0
  3  2  1  0
  4  1  1  0
  5  4  1  0
  6  4  1  0
  7  2  2  0
  8  3  1  0
  9  6  1  0
 10 12  2  0
 11  1  2  0
 12 11  1  0
 13 18  1  0
 14  7  1  0
 15 12  1  0
 16  5  1  0
 17  5  1  0
 18 17  1  0
 19 16  1  0
 20  8  1  0
 21  9  1  0
 22 14  1  0
 23 21  2  0
 24 20  2  0
 10  7  1  0
  8  9  2  0
 13 19  1  0
 24 23  1  0
M  END
> <COMPOUND_ID>
DNDI1417655

$$$$

  SciTegic04051205032D

 22 24  0  0  0  0            999 V2000
    7.9128   -7.1814    0.0000 N   0  0
    8.4172   -6.4879    0.0000 C   0  0
    7.1310   -6.1054    0.0000 C   0  0
    7.9128   -5.8028    0.0000 C   0  0
    7.1310   -6.9292    0.0000 C   0  0
    8.1271   -7.9590    0.0000 C   0  0
    8.9047   -8.1523    0.0000 N   0  0
    6.4627   -7.3201    0.0000 C   0  0
    6.4627   -5.6809    0.0000 C   0  0
    9.2998   -6.4879    0.0000 O   0  0
    8.0767   -5.0000    0.0000 O   0  0
    9.1190   -8.9341    0.0000 C   0  0
    9.9051   -9.1485    0.0000 C   0  0
    5.7061   -6.1054    0.0000 C   0  0
    5.7061   -6.9292    0.0000 C   0  0
    5.0000   -5.7061    0.0000 Br  0  0
   10.4809   -8.5642    0.0000 O   0  0
    8.5516   -9.5394    0.0000 C   0  0
   10.1278   -9.9386    0.0000 C   0  0
   11.2753   -8.7660    0.0000 C   0  0
    8.7702  -10.3212    0.0000 C   0  0
    9.5604  -10.5439    0.0000 C   0  0
  2  1  1  0
  3  5  2  0
  4  2  1  0
  5  1  1  0
  6  1  1  0
  7  6  1  0
  8  5  1  0
  9  3  1  0
 10  2  2  0
 11  4  2  0
 12  7  1  0
 13 12  1  0
 14 15  1  0
 15  8  2  0
 16 14  1  0
 17 13  1  0
 18 12  2  0
 19 13  2  0
 20 17  1  0
 21 18  1  0
 22 21  2  0
  4  3  1  0
  9 14  2  0
 22 19  1  0
M  END
> <COMPOUND_ID>
DNDI1417656

$$$$

  SciTegic04051205032D

 25 27  0  0  0  0            999 V2000
    6.1719   -7.1101    0.0000 S   0  0
    6.0894   -7.9211    0.0000 C   0  0
    6.6942   -8.4676    0.0000 C   0  0
    6.3643   -9.2168    0.0000 C   0  0
    5.5498   -9.1309    0.0000 N   0  0
    5.3815   -8.3302    0.0000 C   0  0
    6.7733   -9.9282    0.0000 C   0  0
    6.1719   -6.2785    0.0000 N   0  0
    7.5947   -9.9282    0.0000 N   0  0
    6.9967   -7.0964    0.0000 O   0  0
    5.3539   -7.0964    0.0000 O   0  0
    8.0174  -10.6258    0.0000 C   0  0
    6.3643  -10.6361    0.0000 O   0  0
    8.8422  -10.6258    0.0000 C   0  0
    5.0000   -9.7392    0.0000 C   0  0
    5.5017   -5.7904    0.0000 C   0  0
    6.8455   -5.7904    0.0000 C   0  0
    7.5947  -11.3613    0.0000 C   0  0
    9.2442   -9.9282    0.0000 C   0  0
    9.2442  -11.3613    0.0000 C   0  0
    6.5911   -5.0000    0.0000 C   0  0
    5.7595   -5.0000    0.0000 C   0  0
   10.0828  -11.3613    0.0000 C   0  0
   10.0828   -9.9282    0.0000 C   0  0
   10.4952  -10.6258    0.0000 C   0  0
  2  1  1  0
  3  2  1  0
  4  3  2  0
  5  6  1  0
  6  2  2  0
  7  4  1  0
  8  1  1  0
  9  7  1  0
 10  1  2  0
 11  1  2  0
 12  9  1  0
 13  7  2  0
 14 12  1  0
 15  5  1  0
 16  8  1  0
 17  8  1  0
 18 12  1  0
 19 14  1  0
 20 14  2  0
 21 17  1  0
 22 16  1  0
 23 20  1  0
 24 19  2  0
 25 23  2  0
 22 21  1  0
  4  5  1  0
 25 24  1  0
M  END
> <COMPOUND_ID>
DNDI1417657

$$$$

  SciTegic04051205032D

 26 29  0  0  0  0            999 V2000
    8.5693   -6.3637    0.0000 C   0  0
    7.8555   -6.7755    0.0000 C   0  0
    7.1416   -6.3637    0.0000 C   0  0
    9.2695   -6.7755    0.0000 C   0  0
    9.9971   -6.3637    0.0000 C   0  0
    7.8555   -7.5992    0.0000 N   0  0
    7.0364   -5.5491    0.0000 C   0  0
    6.3774   -6.7023    0.0000 S   0  0
    7.1416   -8.0111    0.0000 C   0  0
    8.5693   -5.5262    0.0000 C   0  0
    5.8237   -6.0754    0.0000 C   0  0
    7.1416   -8.8210    0.0000 N   0  0
   10.7109   -6.7755    0.0000 N   0  0
    6.2264   -5.3752    0.0000 C   0  0
    9.9971   -5.5262    0.0000 C   0  0
    9.2695   -5.1235    0.0000 C   0  0
    6.4277   -7.5992    0.0000 C   0  0
    9.2695   -7.5992    0.0000 O   0  0
    6.4277   -9.2466    0.0000 C   0  0
    5.7139   -8.0111    0.0000 C   0  0
    7.6542   -5.0000    0.0000 C   0  0
   11.4248   -6.3637    0.0000 C   0  0
    5.7139   -8.8348    0.0000 C   0  0
   10.7109   -5.1235    0.0000 C   0  0
    5.0000   -7.5992    0.0000 C   0  0
   11.4248   -5.5262    0.0000 C   0  0
  2  1  1  0
  3  2  1  0
  4  1  2  0
  5  4  1  0
  6  2  1  0
  7  3  2  0
  8  3  1  0
  9  6  1  0
 10  1  1  0
 11  8  1  0
 12  9  2  0
 13  5  2  0
 14  7  1  0
 15 16  1  0
 16 10  2  0
 17  9  1  0
 18  4  1  0
 19 12  1  0
 20 17  2  0
 21  7  1  0
 22 13  1  0
 23 20  1  0
 24 15  2  0
 25 20  1  0
 26 24  1  0
  5 15  1  0
 14 11  2  0
 22 26  2  0
 23 19  2  0
M  END
> <COMPOUND_ID>
DNDI1417658

$$$$

  SciTegic04051205032D

 26 29  0  0  0  0            999 V2000
    7.8908   -6.4143    0.0000 C   0  0
    7.1619   -6.8384    0.0000 C   0  0
    8.6170   -6.8162    0.0000 C   0  0
    7.1619   -7.6560    0.0000 N   0  0
    6.4357   -6.4143    0.0000 C   0  0
    9.3431   -6.4143    0.0000 C   0  0
    6.4357   -8.0773    0.0000 C   0  0
    7.8908   -5.5690    0.0000 C   0  0
    6.4578   -8.8977    0.0000 N   0  0
   10.0472   -6.8162    0.0000 N   0  0
    6.4357   -5.5884    0.0000 C   0  0
    5.7040   -7.6560    0.0000 C   0  0
    5.7317   -9.3218    0.0000 C   0  0
    9.3431   -5.5690    0.0000 C   0  0
    8.6170   -5.1671    0.0000 C   0  0
    5.0000   -8.9254    0.0000 C   0  0
    5.0000   -8.1023    0.0000 C   0  0
    8.6170   -7.6560    0.0000 O   0  0
    6.9512   -5.2474    0.0000 Cl  0  0
    5.7317   -6.8384    0.0000 C   0  0
   10.7789   -6.4143    0.0000 C   0  0
    5.7317   -5.1671    0.0000 C   0  0
   10.0472   -5.1671    0.0000 C   0  0
    5.0000   -6.4143    0.0000 C   0  0
   10.7789   -5.5690    0.0000 C   0  0
    5.0000   -5.5884    0.0000 C   0  0
  2  1  1  0
  3  1  2  0
  4  2  1  0
  5  2  1  0
  6  3  1  0
  7  4  2  0
  8  1  1  0
  9  7  1  0
 10  6  1  0
 11  5  1  0
 12  7  1  0
 13  9  1  0
 14 15  1  0
 15  8  2  0
 16 13  2  0
 17 12  2  0
 18  3  1  0
 19 11  1  0
 20  5  2  0
 21 10  2  0
 22 11  2  0
 23 14  1  0
 24 20  1  0
 25 23  2  0
 26 24  2  0
 14  6  2  0
 25 21  1  0
 16 17  1  0
 26 22  1  0
M  END
> <COMPOUND_ID>
DNDI1417659

$$$$

  SciTegic04051205032D

 22 24  0  0  0  0            999 V2000
    7.7202   -7.3755    0.0000 C   0  0
    8.2801   -6.7682    0.0000 C   0  0
    8.1282   -8.0872    0.0000 C   0  0
    9.0234   -7.1098    0.0000 N   0  0
    8.0270   -5.9806    0.0000 C   0  0
    8.9348   -7.9322    0.0000 C   0  0
    6.9231   -7.1952    0.0000 C   0  0
    7.2268   -5.7971    0.0000 C   0  0
    6.6701   -6.4044    0.0000 C   0  0
    7.9100   -8.8811    0.0000 C   0  0
    5.8445   -6.2273    0.0000 C   0  0
    6.3538   -7.8088    0.0000 C   0  0
    8.6154   -5.3923    0.0000 O   0  0
    7.0117   -5.0000    0.0000 O   0  0
    7.1161   -9.0931    0.0000 O   0  0
    5.5567   -7.6285    0.0000 C   0  0
    5.2910   -6.8315    0.0000 C   0  0
    8.4920   -9.4631    0.0000 O   0  0
    9.5168   -8.5047    0.0000 C   0  0
    5.0000   -8.2580    0.0000 Br  0  0
    8.2801  -10.2476    0.0000 C   0  0
    8.8589  -10.8201    0.0000 C   0  0
  2  1  2  0
  3  1  1  0
  4  2  1  0
  5  2  1  0
  6  3  2  0
  7  1  1  0
  8  9  1  0
  9  7  2  0
 10  3  1  0
 11  9  1  0
 12  7  1  0
 13  5  2  0
 14  8  2  0
 15 10  2  0
 16 12  2  0
 17 16  1  0
 18 10  1  0
 19  6  1  0
 20 16  1  0
 21 18  1  0
 22 21  1  0
  4  6  1  0
  8  5  1  0
 11 17  2  0
M  END
> <COMPOUND_ID>
DNDI1417660

$$$$

  SciTegic04051205032D

 25 28  0  0  0  0            999 V2000
    8.9124   -7.5545    0.0000 S   0  0
    8.1149   -7.5579    0.0000 C   0  0
    6.2583   -6.6399    0.0000 C   0  0
    5.5329   -6.9631    0.0000 N   0  0
    6.9459   -7.0285    0.0000 C   0  0
    7.7229   -6.8668    0.0000 C   0  0
    6.1723   -5.8527    0.0000 O   0  0
    5.0000   -6.3717    0.0000 N   0  0
    6.8634   -7.8226    0.0000 N   0  0
    7.5854   -8.1458    0.0000 C   0  0
    5.3988   -5.6876    0.0000 C   0  0
    9.6998   -7.5545    0.0000 N   0  0
   12.0720   -6.1345    0.0000 C   0  0
    8.9124   -8.3452    0.0000 O   0  0
    8.9090   -6.7603    0.0000 O   0  0
   12.5017   -6.8668    0.0000 C   0  0
   12.4811   -5.4298    0.0000 O   0  0
   13.7154   -6.1724    0.0000 O   0  0
   13.2891   -5.4332    0.0000 C   0  0
   11.2297   -6.1518    0.0000 C   0  0
   12.0617   -7.5854    0.0000 C   0  0
   10.0848   -6.8565    0.0000 C   0  0
   10.8308   -6.8531    0.0000 C   0  0
   11.2606   -7.5888    0.0000 C   0  0
    5.0000   -5.0000    0.0000 C   0  0
  2  1  1  0
  3  5  1  0
  4  3  2  0
  5  6  2  0
  6  2  1  0
  7  3  1  0
  8  4  1  0
  9 10  1  0
 10  2  2  0
 11  7  1  0
 12  1  1  0
 13 20  1  0
 14  1  2  0
 15  1  2  0
 16 21  1  0
 17 13  1  0
 18 16  1  0
 19 17  1  0
 20 23  2  0
 21 24  2  0
 22 12  1  0
 23 22  1  0
 24 23  1  0
 25 11  1  0
  5  9  1  0
 13 16  2  0
 11  8  2  0
 18 19  1  0
M  END
> <COMPOUND_ID>
DNDI1417661

$$$$

  SciTegic04051205032D

 24 26  0  0  0  0            999 V2000
    5.9897   -6.6775    0.0000 C   0  0
    9.1527   -8.6892    0.0000 C   0  0
    9.0679   -9.5012    0.0000 C   0  0
    8.5387   -8.1439    0.0000 O   0  0
    6.4017   -5.9584    0.0000 C   0  0
    6.3290   -7.4248    0.0000 C   0  0
    9.7344   -9.9981    0.0000 C   0  0
    9.8718   -8.2772    0.0000 C   0  0
    8.8699   -7.3804    0.0000 C   0  0
    7.6419   -6.6775    0.0000 N   0  0
    9.6981   -7.4692    0.0000 C   0  0
    5.1615   -6.7542    0.0000 C   0  0
    9.6537  -10.8101    0.0000 C   0  0
    8.3085   -9.8445    0.0000 C   0  0
    5.7150   -7.9742    0.0000 O   0  0
    5.0000   -7.5581    0.0000 C   0  0
    8.4579   -6.6775    0.0000 C   0  0
    7.2339   -5.9584    0.0000 N   0  0
    5.9897   -5.2475    0.0000 O   0  0
    8.8902  -11.1574    0.0000 C   0  0
   10.4858   -9.6588    0.0000 Cl  0  0
    8.2276  -10.6565    0.0000 C   0  0
    8.8013  -11.9694    0.0000 Cl  0  0
    7.1329   -7.5904    0.0000 C   0  0
  2  4  1  0
  3  2  1  0
  4  9  1  0
  5  1  1  0
  6  1  2  0
  7  3  2  0
  8 11  1  0
  9 17  1  0
 10 18  1  0
 11  9  2  0
 12  1  1  0
 13  7  1  0
 14  3  1  0
 15  6  1  0
 16 12  2  0
 17 10  2  0
 18  5  1  0
 19  5  2  0
 20 22  1  0
 21  7  1  0
 22 14  2  0
 23 20  1  0
 24  6  1  0
 16 15  1  0
  8  2  2  0
 20 13  2  0
M  END
> <COMPOUND_ID>
DNDI1417662

$$$$

  SciTegic04051205032D

 24 26  0  0  0  0            999 V2000
    6.7070   -6.2988    0.0000 N   0  0
    7.0532   -5.5327    0.0000 N   0  0
    7.0843   -7.0220    0.0000 C   0  0
    5.9099   -6.2093    0.0000 C   0  0
   10.8212   -9.1725    0.0000 C   0  0
    7.9048   -7.0220    0.0000 C   0  0
    6.6410   -7.7298    0.0000 N   0  0
   10.8212  -10.6268    0.0000 C   0  0
   10.4207   -9.9035    0.0000 C   0  0
    5.7427   -5.4005    0.0000 C   0  0
    7.9048   -8.4414    0.0000 N   0  0
    8.3131   -7.7298    0.0000 C   0  0
   11.6533  -10.6268    0.0000 C   0  0
    6.4310   -5.0000    0.0000 C   0  0
    9.5768   -8.4414    0.0000 N   0  0
    7.0609   -8.4414    0.0000 C   0  0
   11.6533   -9.1725    0.0000 C   0  0
   12.0617   -9.9035    0.0000 C   0  0
   10.3974   -8.4414    0.0000 C   0  0
    9.1569   -7.7298    0.0000 N   0  0
   10.4207  -11.3229    0.0000 Cl  0  0
    9.6002   -9.9035    0.0000 O   0  0
   12.8822   -9.9035    0.0000 Cl  0  0
    5.0000   -5.0661    0.0000 C   0  0
  2  1  1  0
  3  1  1  0
  4  1  1  0
  5 19  1  0
  6  3  2  0
  7  3  1  0
  8  9  1  0
  9  5  2  0
 10  4  2  0
 11 16  1  0
 12  6  1  0
 13 18  1  0
 14  2  2  0
 15 20  1  0
 16  7  2  0
 17  5  1  0
 18 17  2  0
 19 15  2  0
 20 12  1  0
 21  8  1  0
 22  9  1  0
 23 18  1  0
 24 10  1  0
 10 14  1  0
 11 12  2  0
 13  8  2  0
M  END
> <COMPOUND_ID>
DNDI1417663

$$$$

  SciTegic04051205032D

 22 23  0  0  0  0            999 V2000
   10.8047   -7.3490    0.0000 C   0  0
    9.5517   -6.6683    0.0000 N   0  0
    8.3151   -5.9644    0.0000 C   0  0
   11.2258   -8.0660    0.0000 C   0  0
    8.7394   -6.6683    0.0000 N   0  0
    7.4864   -5.9743    0.0000 C   0  0
    9.9759   -7.3622    0.0000 C   0  0
    6.2530   -6.6913    0.0000 C   0  0
    7.0752   -6.6847    0.0000 C   0  0
   12.0380   -8.0660    0.0000 C   0  0
   11.2093   -6.6387    0.0000 C   0  0
    5.8222   -5.9743    0.0000 C   0  0
    8.7229   -5.2475    0.0000 O   0  0
    7.0752   -5.2540    0.0000 C   0  0
    6.2464   -5.2639    0.0000 C   0  0
   12.4492   -7.3490    0.0000 C   0  0
    5.8419   -7.4017    0.0000 Br  0  0
   10.8146   -8.7830    0.0000 O   0  0
   12.0282   -6.6387    0.0000 C   0  0
   13.2879   -7.3556    0.0000 O   0  0
    9.5682   -8.0956    0.0000 C   0  0
    5.0000   -5.9940    0.0000 C   0  0
  2  7  2  0
  3  5  1  0
  4  1  1  0
  5  2  1  0
  6  3  1  0
  7  1  1  0
  8  9  2  0
  9  6  1  0
 10  4  2  0
 11  1  2  0
 12 15  2  0
 13  3  2  0
 14  6  2  0
 15 14  1  0
 16 19  2  0
 17  8  1  0
 18  4  1  0
 19 11  1  0
 20 16  1  0
 21  7  1  0
 22 12  1  0
 16 10  1  0
 12  8  1  0
M  END
> <COMPOUND_ID>
DNDI1417664

$$$$

  SciTegic04051205032D

 27 29  0  0  0  0            999 V2000
    8.0396   -7.8879    0.0000 C   0  0
    9.2677   -8.6073    0.0000 C   0  0
    7.6346   -7.1484    0.0000 C   0  0
   10.1010   -8.6073    0.0000 C   0  0
    8.8661   -7.8879    0.0000 C   0  0
    6.8014   -8.5906    0.0000 N   0  0
    7.6346   -8.5906    0.0000 C   0  0
    6.8182   -7.1484    0.0000 O   0  0
   10.5025   -7.8879    0.0000 O   0  0
    8.8661   -9.3101    0.0000 C   0  0
    8.0396   -6.4456    0.0000 C   0  0
   10.5025   -9.3269    0.0000 C   0  0
    5.1650   -8.5906    0.0000 O   0  0
    6.3998   -9.3101    0.0000 C   0  0
    6.3998   -7.8879    0.0000 C   0  0
    5.5834   -9.3269    0.0000 C   0  0
    5.5666   -7.8879    0.0000 C   0  0
    7.6346   -5.7194    0.0000 C   0  0
    8.8661   -6.4456    0.0000 C   0  0
   10.1010  -10.0363    0.0000 C   0  0
   11.3224   -9.3269    0.0000 C   0  0
    8.0396   -5.0000    0.0000 C   0  0
    9.2844   -5.7194    0.0000 C   0  0
   10.5025  -10.7557    0.0000 C   0  0
   11.7406  -10.0530    0.0000 C   0  0
    8.8661   -5.0000    0.0000 C   0  0
   11.3224  -10.7725    0.0000 C   0  0
  2  5  1  0
  3  1  1  0
  4  2  1  0
  5  1  1  0
  6  7  1  0
  7  1  1  0
  8  3  2  0
  9  4  2  0
 10  2  2  0
 11  3  1  0
 12  4  1  0
 13 16  1  0
 14  6  1  0
 15  6  1  0
 16 14  1  0
 17 15  1  0
 18 11  1  0
 19 11  2  0
 20 12  2  0
 21 12  1  0
 22 18  2  0
 23 19  1  0
 24 20  1  0
 25 21  2  0
 26 22  1  0
 27 25  1  0
 13 17  1  0
 26 23  2  0
 27 24  2  0
M  END
> <COMPOUND_ID>
DNDI1417665

$$$$

  SciTegic04051205032D

 27 29  0  0  0  0            999 V2000
    6.9721   -8.5139    0.0000 N   0  3
    6.7132   -9.3107    0.0000 N   0  0
    8.8406   -9.5418    0.0000 N   0  0
    8.0597   -9.2908    0.0000 C   0  0
    7.8128   -8.5139    0.0000 C   0  5
    9.4462   -8.9920    0.0000 C   0  0
    7.3825   -9.7888    0.0000 O   0  0
    9.2549   -8.2031    0.0000 N   0  0
    6.4741   -7.8446    0.0000 C   0  0
   10.2271   -9.2310    0.0000 N   0  0
    6.7968   -7.0916    0.0000 C   0  0
    9.8446   -7.6374    0.0000 C   0  0
    6.3068   -6.4223    0.0000 C   0  0
    9.6534   -6.8406    0.0000 C   0  0
   10.8326   -8.6693    0.0000 C   0  0
   10.4024  -10.0278    0.0000 C   0  0
    5.6375   -7.9362    0.0000 C   0  0
    6.6374   -5.6573    0.0000 C   0  0
    5.4900   -6.5019    0.0000 C   0  0
    8.8725   -6.6255    0.0000 C   0  0
   10.2390   -6.2430    0.0000 C   0  0
   10.0318   -5.4542    0.0000 C   0  0
    8.6614   -5.8207    0.0000 C   0  0
    5.0000   -5.8486    0.0000 C   0  0
    6.1594   -5.0000    0.0000 C   0  0
    9.2351   -5.2390    0.0000 C   0  0
    5.3267   -5.0717    0.0000 C   0  0
  2  1  2  0
  3  4  2  0
  4  5  1  0
  5  1  1  0
  6  3  1  0
  7  2  1  0
  8  6  2  0
  9  1  1  0
 10  6  1  0
 11  9  1  0
 12  8  1  0
 13 11  1  0
 14 12  1  0
 15 10  1  0
 16 10  1  0
 17  9  1  0
 18 13  2  0
 19 13  1  0
 20 14  1  0
 21 14  2  0
 22 21  1  0
 23 20  2  0
 24 19  2  0
 25 18  1  0
 26 22  2  0
 27 24  1  0
  4  7  1  0
 25 27  2  0
 23 26  1  0
M  CHG  2   1   1   5  -1
M  END
> <COMPOUND_ID>
DNDI1417666

$$$$

  SciTegic04051205032D

 26 29  0  0  0  0            999 V2000
    6.2644   -7.1876    0.0000 C   0  0
    6.9689   -7.5989    0.0000 C   0  0
    6.2907   -6.3651    0.0000 C   0  0
    7.6908   -6.3651    0.0000 C   0  0
    7.6908   -7.1876    0.0000 C   0  0
    5.4332   -7.4195    0.0000 S   0  0
    6.9951   -5.9582    0.0000 C   0  0
    5.0000   -6.7064    0.0000 C   0  0
    8.4215   -5.9319    0.0000 O   0  0
    5.5425   -6.0763    0.0000 C   0  0
   11.2217   -6.0412    0.0000 N   0  0
    9.1216   -6.3431    0.0000 C   0  0
    9.8215   -5.9319    0.0000 C   0  0
    9.8215   -5.1356    0.0000 O   0  0
    6.9689   -8.4215    0.0000 C   0  0
   12.6131   -6.1856    0.0000 C   0  0
    8.4083   -7.5989    0.0000 C   0  0
   10.4998   -6.3913    0.0000 C   0  0
   11.8736   -6.5138    0.0000 C   0  0
   12.6874   -5.3500    0.0000 C   0  0
   13.2781   -6.6801    0.0000 C   0  0
    7.6820   -8.8459    0.0000 C   0  0
    8.4083   -8.4477    0.0000 C   0  0
   13.4356   -5.0000    0.0000 C   0  0
   14.0525   -6.3169    0.0000 C   0  0
   14.1226   -5.4944    0.0000 C   0  0
  2  1  1  0
  3  1  2  0
  4  7  2  0
  5  2  2  0
  6  1  1  0
  7  3  1  0
  8  6  1  0
  9  4  1  0
 10  3  1  0
 11 18  1  0
 12  9  1  0
 13 12  1  0
 14 13  1  0
 15  2  1  0
 16 19  1  0
 17  5  1  0
 18 13  1  0
 19 11  1  0
 20 16  1  0
 21 16  2  0
 22 15  2  0
 23 22  1  0
 24 20  2  0
 25 21  1  0
 26 25  2  0
  8 10  2  0
  4  5  1  0
 23 17  2  0
 26 24  1  0
M  END
> <COMPOUND_ID>
DNDI1417667

$$$$

  SciTegic04051205032D

 26 29  0  0  0  0            999 V2000
    6.8918   -6.1639    0.0000 C   0  0
   11.9114   -6.5798    0.0000 N   0  0
    6.2319   -5.0000    0.0000 C   0  0
    5.9359   -6.6758    0.0000 C   0  0
    5.5479   -6.1639    0.0000 C   0  0
   11.1915   -6.1519    0.0000 C   0  0
    6.4639   -7.0597    0.0000 C   0  0
    6.2319   -6.5478    0.0000 C   0  0
    6.8918   -5.4039    0.0000 C   0  0
    5.9359   -5.7439    0.0000 C   0  0
    5.5479   -5.4039    0.0000 C   0  0
    5.0000   -6.7998    0.0000 C   0  0
   11.8994   -7.4077    0.0000 C   0  0
   10.4715   -6.5798    0.0000 C   0  0
    7.6158   -6.5798    0.0000 C   0  0
   10.4715   -7.3997    0.0000 O   0  0
   12.6273   -6.1519    0.0000 C   0  0
    9.0316   -6.5798    0.0000 O   0  0
    9.7516   -6.1519    0.0000 C   0  0
   11.1754   -7.8197    0.0000 C   0  0
   12.6073   -7.8197    0.0000 C   0  0
    8.3197   -6.1519    0.0000 C   0  0
   13.3393   -6.5918    0.0000 C   0  0
   11.1675   -8.6356    0.0000 C   0  0
   12.6073   -8.6476    0.0000 C   0  0
   11.8874   -9.0676    0.0000 C   0  0
  2  6  1  0
  3  9  1  0
  4  7  1  0
  5  8  1  0
  6 14  1  0
  7  1  1  0
  8  1  1  0
  9  1  1  0
 10  3  1  0
 11  3  1  0
 12  5  1  0
 13  2  1  0
 14 19  1  0
 15  1  1  0
 16 14  1  0
 17  2  1  0
 18 22  1  0
 19 18  1  0
 20 13  1  0
 21 13  1  0
 22 15  1  0
 23 17  1  0
 24 20  1  0
 25 21  1  0
 26 25  1  0
  4 10  1  0
  5 11  1  0
  4 12  1  0
 24 26  1  0
M  END
> <COMPOUND_ID>
DNDI1417668

$$$$

  SciTegic04051205032D

 25 26  0  0  0  0            999 V2000
    7.1427   -5.8264    0.0000 C   0  0
    7.8569   -6.2333    0.0000 N   0  0
    6.4326   -6.2417    0.0000 C   0  0
    9.2854   -6.2292    0.0000 C   0  0
    8.5712   -5.8264    0.0000 N   0  0
    7.8611   -7.0597    0.0000 C   0  0
    9.9954   -5.8181    0.0000 N   0  0
    5.7143   -5.8306    0.0000 C   0  0
    7.1427   -5.0000    0.0000 O   0  0
    9.2854   -7.0597    0.0000 O   0  0
   10.7097   -6.2250    0.0000 C   0  0
   12.1381   -7.0389    0.0000 C   0  0
    5.7101   -5.0084    0.0000 F   0  0
    6.4368   -7.0721    0.0000 C   0  0
   12.8524   -7.4458    0.0000 Cl  0  0
   10.7139   -7.0472    0.0000 C   0  0
   11.4156   -5.8097    0.0000 C   0  0
   11.4239   -7.4583    0.0000 C   0  0
   12.1298   -6.2167    0.0000 C   0  0
    7.1427   -7.4790    0.0000 C   0  0
    8.5753   -7.4749    0.0000 C   0  0
    7.0597   -6.8479    0.0000 C   0  0
    5.0000   -6.2417    0.0000 C   0  0
    5.7184   -7.4874    0.0000 C   0  0
    5.0000   -7.0721    0.0000 C   0  0
  2  1  1  0
  3  1  1  0
  4  5  1  0
  5  2  1  0
  6  2  1  0
  7  4  1  0
  8  3  2  0
  9  1  2  0
 10  4  2  0
 11  7  1  0
 12 19  1  0
 13  8  1  0
 14  3  1  0
 15 12  1  0
 16 11  2  0
 17 11  1  0
 18 16  1  0
 19 17  2  0
 20  6  1  0
 21  6  1  0
 22  6  1  0
 23  8  1  0
 24 14  2  0
 25 24  1  0
 25 23  2  0
 12 18  2  0
M  END
> <COMPOUND_ID>
DNDI1417669

$$$$

  SciTegic04051205032D

 24 27  0  0  0  0            999 V2000
    8.2500   -7.3239    0.0000 N   0  0
    6.9302   -8.0655    0.0000 C   0  0
    7.5793   -8.4330    0.0000 N   0  0
    8.2500   -8.0655    0.0000 C   0  0
    6.9302   -7.3239    0.0000 N   0  0
    8.9421   -6.9478    0.0000 C   0  0
    6.2875   -8.4245    0.0000 C   0  0
    8.9507   -6.1675    0.0000 C   0  0
    9.6385   -5.7699    0.0000 O   0  0
    8.9421   -8.4438    0.0000 S   0  0
   10.3221   -5.2475    0.0000 O   0  0
    9.6385   -7.3239    0.0000 C   0  0
   10.3221   -6.1503    0.0000 C   0  0
    5.6406   -8.0440    0.0000 C   0  0
    8.9507   -5.2475    0.0000 C   0  0
    7.5793   -9.2326    0.0000 C   0  0
    8.2865   -9.6410    0.0000 C   0  0
   10.3221   -6.9478    0.0000 C   0  0
    8.2865  -10.4686    0.0000 C   0  0
    5.6406   -7.2272    0.0000 Cl  0  0
    6.2875   -9.1639    0.0000 C   0  0
    5.0000   -8.4245    0.0000 C   0  0
    5.6406   -9.5422    0.0000 C   0  0
    5.0000   -9.1639    0.0000 C   0  0
  2  5  2  0
  3  4  1  0
  4  1  1  0
  5  1  1  0
  6  1  1  0
  7  2  1  0
  8  6  1  0
  9  8  1  0
 10  4  2  0
 11 15  1  0
 12  6  1  0
 13 18  1  0
 14  7  1  0
 15  8  1  0
 16  3  1  0
 17 16  1  0
 18 12  1  0
 19 17  2  0
 20 14  1  0
 21  7  2  0
 22 14  2  0
 23 21  1  0
 24 23  2  0
  3  2  1  0
 11 13  1  0
 13  9  1  0
 24 22  1  0
M  END
> <COMPOUND_ID>
DNDI1417670

$$$$

  SciTegic04051205032D

 24 27  0  0  0  0            999 V2000
    8.7248   -8.4637    0.0000 C   0  0
    7.4194   -7.8201    0.0000 O   0  0
    8.2421   -7.8201    0.0000 C   0  0
    7.7958   -9.5960    0.0000 S   0  0
    8.5396   -9.2590    0.0000 C   0  0
    7.0612   -9.2348    0.0000 C   0  0
    6.8912   -8.4485    0.0000 C   0  0
    9.5018   -5.6951    0.0000 N   0  0
    6.4541   -9.7872    0.0000 C   0  0
    9.5018   -8.2299    0.0000 C   0  0
    8.6397   -7.1614    0.0000 C   0  0
    9.1072   -9.8237    0.0000 C   0  0
    6.1049   -8.2087    0.0000 C   0  0
    8.2421   -6.4025    0.0000 C   0  0
    9.4654   -7.1614    0.0000 C   0  0
    5.6587   -9.5413    0.0000 C   0  0
    8.6458   -5.7042    0.0000 C   0  0
    9.9025   -6.4328    0.0000 C   0  0
   10.1090   -8.7976    0.0000 C   0  0
    5.4978   -8.7430    0.0000 C   0  0
    9.9178   -9.6111    0.0000 C   0  0
    5.0000  -10.0847    0.0000 F   0  0
   10.9347   -8.5760    0.0000 Cl  0  0
    9.9785   -5.0000    0.0000 C   0  0
  2  3  1  0
  3  1  1  0
  4  5  1  0
  5  1  2  0
  6  4  1  0
  7  2  1  0
  8 17  1  0
  9  6  1  0
 10  1  1  0
 11  3  1  0
 12  5  1  0
 13  7  1  0
 14 11  1  0
 15 11  1  0
 16  9  2  0
 17 14  1  0
 18 15  1  0
 19 10  2  0
 20 13  2  0
 21 19  1  0
 22 16  1  0
 23 19  1  0
 24  8  1  0
 21 12  2  0
  6  7  2  0
  8 18  1  0
 16 20  1  0
M  END
> <COMPOUND_ID>
DNDI1417671

$$$$

  SciTegic04051205032D

 22 24  0  0  0  0            999 V2000
    7.8467   -7.6680    0.0000 C   0  0
    8.5172   -8.1596    0.0000 C   0  0
    7.1728   -8.1458    0.0000 C   0  0
    8.2455   -8.9332    0.0000 N   0  0
    7.0732   -7.9671    0.0000 C   0  0
    7.4307   -8.9332    0.0000 C   0  0
    6.4234   -7.4479    0.0000 C   0  0
    6.5575   -6.6331    0.0000 C   0  0
    6.3718   -7.9739    0.0000 C   0  0
    9.3079   -7.9224    0.0000 O   0  0
    5.9111   -6.1105    0.0000 C   0  0
    5.6601   -7.7470    0.0000 O   0  0
    6.8737   -9.5417    0.0000 C   0  0
    7.9705   -6.8497    0.0000 O   0  0
    5.8183   -8.5859    0.0000 C   0  0
    5.1376   -6.4096    0.0000 F   0  0
    6.0727   -9.3664    0.0000 C   0  0
    5.0000   -8.4209    0.0000 Br  0  0
    7.3242   -6.3305    0.0000 C   0  0
    6.0452   -5.2991    0.0000 C   0  0
    7.4479   -5.5123    0.0000 C   0  0
    6.8118   -5.0000    0.0000 C   0  0
  2  1  1  0
  3  1  1  0
  4  2  1  0
  5  1  1  0
  6  3  2  0
  7  5  1  0
  8  7  1  0
  9  3  1  0
 10  2  2  0
 11  8  2  0
 12  7  2  0
 13  6  1  0
 14  1  1  0
 15  9  2  0
 16 11  1  0
 17 15  1  0
 18 15  1  0
 19  8  1  0
 20 11  1  0
 21 19  2  0
 22 21  1  0
  6  4  1  0
 17 13  2  0
 22 20  2  0
M  END
> <COMPOUND_ID>
DNDI1417672

$$$$

  SciTegic04051205032D

 27 29  0  0  0  0            999 V2000
    9.9998   -6.6505    0.0000 N   0  0
    9.9998   -7.4723    0.0000 C   0  0
   10.7184   -7.8849    0.0000 C   0  0
   11.4337   -7.4723    0.0000 N   0  0
   10.7184   -6.2379    0.0000 C   0  0
   11.4337   -6.6505    0.0000 C   0  0
    9.2880   -6.2379    0.0000 C   0  0
    8.5796   -6.6505    0.0000 C   0  0
    7.8644   -6.2379    0.0000 C   0  0
   10.7184   -8.7102    0.0000 O   0  0
    9.2880   -7.8849    0.0000 O   0  0
    7.1457   -6.6505    0.0000 N   0  0
    5.7187   -9.1228    0.0000 N   0  0
    7.8644   -5.4126    0.0000 O   0  0
   12.1454   -7.8849    0.0000 C   0  0
   12.1454   -8.7102    0.0000 C   0  0
    6.4339   -7.8849    0.0000 C   0  0
   12.8641   -9.1228    0.0000 C   0  0
    7.1457   -7.4723    0.0000 C   0  0
   10.7184   -5.4126    0.0000 C   0  0
   12.1454   -6.2379    0.0000 C   0  0
    6.4339   -8.7102    0.0000 C   0  0
    5.0000   -8.7102    0.0000 C   0  0
    5.7187   -7.4723    0.0000 C   0  0
    5.0000   -7.8849    0.0000 C   0  0
   12.1454   -5.4126    0.0000 C   0  0
   11.4337   -5.0000    0.0000 C   0  0
  2  1  1  0
  3  2  1  0
  4  6  1  0
  5  1  1  0
  6  5  1  0
  7  1  1  0
  8  7  1  0
  9  8  1  0
 10  3  2  0
 11  2  2  0
 12  9  1  0
 13 22  1  0
 14  9  2  0
 15  4  1  0
 16 15  1  0
 17 19  1  0
 18 16  2  0
 19 12  1  0
 20  5  2  0
 21  6  2  0
 22 17  2  0
 23 25  1  0
 24 17  1  0
 25 24  2  0
 26 27  2  0
 27 20  1  0
  3  4  1  0
 21 26  1  0
 13 23  2  0
M  END
> <COMPOUND_ID>
DNDI1417673

$$$$

  SciTegic04051205032D

 25 26  0  0  0  0            999 V2000
    8.5961   -8.7002    0.0000 C   0  0
    7.8472   -8.2756    0.0000 C   0  0
    8.5961   -9.5411    0.0000 C   0  0
    7.8472   -9.9696    0.0000 C   0  0
    7.8472  -10.8146    0.0000 C   0  0
    7.8472   -7.4267    0.0000 C   0  0
    7.1264   -7.0262    0.0000 C   0  0
    8.5961  -11.2350    0.0000 C   0  0
    9.3249   -8.2756    0.0000 O   0  0
    9.3249   -9.9696    0.0000 C   0  0
    9.3249  -10.8146    0.0000 C   0  0
    6.4056   -7.4387    0.0000 C   0  0
    7.1264   -6.2013    0.0000 C   0  0
    8.5961   -7.0062    0.0000 S   0  0
    5.6728   -6.1893    0.0000 C   0  0
    7.1905  -11.2230    0.0000 O   0  0
    6.4056   -5.7768    0.0000 C   0  0
    5.6728   -7.0262    0.0000 C   0  0
    5.0000   -5.8849    0.0000 F   0  0
    8.5961  -12.0840    0.0000 O   0  0
    9.2929   -5.0000    0.0000 O   0  0
    8.6041   -6.1252    0.0000 C   0  0
    9.2929   -5.6807    0.0000 C   0  0
    7.1745  -11.9558    0.0000 C   0  0
    9.3369  -12.3523    0.0000 C   0  0
  2  1  1  0
  3  1  1  0
  4  3  2  0
  5  4  1  0
  6  2  1  0
  7  6  1  0
  8 11  1  0
  9  1  2  0
 10  3  1  0
 11 10  2  0
 12  7  1  0
 13  7  2  0
 14  6  1  0
 15 17  2  0
 16  5  1  0
 17 13  1  0
 18 12  2  0
 19 15  1  0
 20  8  1  0
 21 23  1  0
 22 14  1  0
 23 22  1  0
 24 16  1  0
 25 20  1  0
  8  5  2  0
 18 15  1  0
M  END
> <COMPOUND_ID>
DNDI1417674

$$$$

  SciTegic04051205032D

 27 29  0  0  0  0            999 V2000
    7.7402   -8.5155    0.0000 C   0  0
    7.4744   -7.7339    0.0000 N   0  0
   11.7398   -6.8258    0.0000 C   0  0
    7.0884   -8.9996    0.0000 N   0  0
   11.9012   -7.6484    0.0000 C   0  0
   10.9519   -6.5853    0.0000 C   0  0
    6.6485   -7.7339    0.0000 C   0  0
    6.4049   -8.5345    0.0000 C   0  0
   10.7716   -5.7816    0.0000 C   0  0
   12.6764   -7.9269    0.0000 C   0  0
    9.1293   -8.2117    0.0000 N   0  0
   10.3444   -7.1295    0.0000 C   0  0
   11.2842   -8.1895    0.0000 C   0  0
    8.5218   -8.7623    0.0000 N   0  0
   10.4963   -7.9364    0.0000 C   0  0
    9.8761   -8.4680    0.0000 C   0  0
   12.3473   -6.2752    0.0000 O   0  0
    6.0822   -7.1264    0.0000 C   0  0
    5.5696   -8.7116    0.0000 C   0  0
    9.9647   -5.9714    0.0000 C   0  0
   11.5752   -5.6075    0.0000 C   0  0
   10.5880   -5.0000    0.0000 C   0  0
   13.4453   -8.2022    0.0000 C   0  0
   12.9549   -7.1548    0.0000 C   0  0
   12.3948   -8.7053    0.0000 C   0  0
    5.2468   -7.2909    0.0000 C   0  0
    5.0000   -8.1041    0.0000 C   0  0
  2  1  2  0
  3  5  2  0
  4  1  1  0
  5 13  1  0
  6 12  2  0
  7  2  1  0
  8  4  1  0
  9  6  1  0
 10  5  1  0
 11 14  1  0
 12 15  1  0
 13 15  2  0
 14  1  1  0
 15 16  1  0
 16 11  2  0
 17  3  1  0
 18  7  1  0
 19  8  1  0
 20  9  1  0
 21  9  1  0
 22  9  1  0
 23 10  1  0
 24 10  1  0
 25 10  1  0
 26 18  2  0
 27 19  2  0
  8  7  2  0
 27 26  1  0
  3  6  1  0
M  END
> <COMPOUND_ID>
DNDI1417675

$$$$

  SciTegic04051205032D

 27 29  0  0  0  0            999 V2000
    7.2139   -9.5832    0.0000 N   0  0
    7.6966  -10.2490    0.0000 C   0  0
    7.2139  -10.9259    0.0000 N   0  0
    6.4426   -9.8495    0.0000 C   0  0
    6.4426  -10.6485    0.0000 C   0  0
    7.4802   -8.7842    0.0000 C   0  0
    6.9087   -8.1849    0.0000 C   0  0
    7.4802  -11.7249    0.0000 C   0  0
    8.5233  -10.2490    0.0000 N   0  0
    7.1306   -7.3859    0.0000 C   0  0
    6.1097   -8.3514    0.0000 O   0  0
    6.5757   -6.7977    0.0000 C   0  0
    7.9463   -7.1862    0.0000 C   0  0
    6.9087  -12.3241    0.0000 C   0  0
    7.1473  -13.1231    0.0000 N   0  0
    6.7921   -6.0210    0.0000 C   0  0
    8.1737   -6.3982    0.0000 C   0  0
    7.5911   -5.7990    0.0000 C   0  0
    5.7102   -9.4167    0.0000 C   0  0
    5.7102  -11.0813    0.0000 C   0  0
    7.9463  -13.2951    0.0000 C   0  0
    6.5924  -13.7223    0.0000 C   0  0
    7.7742   -5.0000    0.0000 C   0  0
    5.0000   -9.8495    0.0000 C   0  0
    5.0000  -10.6485    0.0000 C   0  0
    8.1904  -14.0719    0.0000 C   0  0
    5.7934  -13.5448    0.0000 C   0  0
  2  1  1  0
  3  2  1  0
  4  1  1  0
  5  4  2  0
  6  1  1  0
  7  6  1  0
  8  3  1  0
  9  2  2  0
 10  7  1  0
 11  7  2  0
 12 10  1  0
 13 10  2  0
 14  8  1  0
 15 14  1  0
 16 12  2  0
 17 13  1  0
 18 17  2  0
 19  4  1  0
 20  5  1  0
 21 15  1  0
 22 15  1  0
 23 18  1  0
 24 19  2  0
 25 24  1  0
 26 21  1  0
 27 22  1  0
  3  5  1  0
 25 20  2  0
 18 16  1  0
M  END
> <COMPOUND_ID>
DNDI1417676

$$$$

  SciTegic04051205032D

 26 28  0  0  0  0            999 V2000
    8.5376   -8.2423    0.0000 C   0  0
    9.9535   -8.2546    0.0000 S   0  0
    9.2477   -8.6650    0.0000 C   0  0
   10.6759   -8.6650    0.0000 C   0  0
    8.5499   -7.4215    0.0000 C   0  0
   12.1164   -8.6650    0.0000 C   0  0
   11.3982   -8.2546    0.0000 C   0  0
   12.1164   -9.4817    0.0000 C   0  0
    7.8564   -7.0111    0.0000 N   0  0
   11.3982   -9.8962    0.0000 C   0  0
    7.1340   -5.7798    0.0000 C   0  0
   10.6759   -9.4817    0.0000 C   0  0
    5.7058   -5.8168    0.0000 N   0  0
    7.8072   -8.6650    0.0000 C   0  0
    7.8564   -6.1903    0.0000 C   0  0
    6.4282   -6.2026    0.0000 C   0  0
    9.2477   -9.4981    0.0000 C   0  0
   12.8387   -8.2546    0.0000 C   0  0
    7.1587   -7.4215    0.0000 C   0  0
    5.6935   -5.0000    0.0000 C   0  0
    5.0000   -6.2518    0.0000 C   0  0
   12.8387   -9.8962    0.0000 C   0  0
    7.7949   -9.4693    0.0000 C   0  0
    8.5130   -9.9044    0.0000 C   0  0
   13.5569   -8.6650    0.0000 C   0  0
   13.5569   -9.4817    0.0000 C   0  0
  2  3  1  0
  3  1  1  0
  4  2  1  0
  5  1  1  0
  6  7  1  0
  7  4  2  0
  8 10  1  0
  9  5  1  0
 10 12  2  0
 11 15  1  0
 12  4  1  0
 13 16  1  0
 14  1  2  0
 15  9  1  0
 16 11  1  0
 17  3  2  0
 18  6  2  0
 19  9  1  0
 20 13  1  0
 21 13  1  0
 22  8  2  0
 23 14  1  0
 24 23  2  0
 25 18  1  0
 26 22  1  0
 24 17  1  0
  8  6  1  0
 26 25  2  0
M  END
> <COMPOUND_ID>
DNDI1417677

$$$$

  SciTegic04051205032D

 21 23  0  0  0  0            999 V2000
    7.1682   -8.4840    0.0000 C   0  0
    8.6222   -8.4840    0.0000 C   0  0
    7.8867   -8.0728    0.0000 C   0  0
    7.1682   -9.3274    0.0000 C   0  0
    6.4271   -8.0558    0.0000 C   0  0
    8.6222   -9.3105    0.0000 C   0  0
    7.8867   -7.2249    0.0000 C   0  0
    7.8867   -9.7386    0.0000 O   0  0
    8.5882   -6.7566    0.0000 S   0  0
    6.4455   -9.7386    0.0000 C   0  0
    5.7015   -8.4903    0.0000 O   0  0
    8.3509   -5.9193    0.0000 C   0  0
    9.3618   -8.0770    0.0000 C   0  0
    5.7015   -9.3380    0.0000 C   0  0
    7.3039   -6.6888    0.0000 C   0  0
   10.0973   -7.6701    0.0000 N   0  0
    7.5370   -5.9193    0.0000 C   0  0
    6.4271   -7.4730    0.0000 O   0  0
    9.3788   -9.7174    0.0000 N   0  0
    8.8129   -5.2475    0.0000 Br  0  0
    5.0000   -9.7556    0.0000 C   0  0
  2  3  1  0
  3  1  1  0
  4  1  2  0
  5  1  1  0
  6  8  1  0
  7  3  1  0
  8  4  1  0
  9  7  1  0
 10  4  1  0
 11  5  1  0
 12  9  1  0
 13  2  1  0
 14 11  1  0
 15  7  2  0
 16 13  3  0
 17 15  1  0
 18  5  2  0
 19  6  1  0
 20 12  1  0
 21 14  1  0
 14 10  2  0
  2  6  2  0
 12 17  2  0
M  END
> <COMPOUND_ID>
DNDI1417678

$$$$

  SciTegic04051205032D

 24 26  0  0  0  0            999 V2000
    9.5510   -8.2289    0.0000 C   0  0
    8.3206   -8.7601    0.0000 N   0  0
    8.7447   -8.0455    0.0000 C   0  0
    8.8708   -9.3676    0.0000 C   0  0
    9.6198   -9.0352    0.0000 C   0  0
    7.4761   -8.7601    0.0000 C   0  0
   10.1547   -7.6786    0.0000 C   0  0
    7.0749   -9.4593    0.0000 C   0  0
    6.2495   -9.4593    0.0000 C   0  0
   10.6133   -6.3413    0.0000 N   0  0
    9.9866   -6.8686    0.0000 C   0  0
    5.8254   -8.7601    0.0000 C   0  0
    7.0520   -8.0264    0.0000 C   0  0
   10.9457   -7.9538    0.0000 O   0  0
    6.2266   -8.0455    0.0000 C   0  0
    8.3932   -7.2774    0.0000 C   0  0
    5.8254  -10.1930    0.0000 Cl  0  0
    8.7256  -10.1930    0.0000 C   0  0
    5.0000   -8.7601    0.0000 Cl  0  0
   11.3852   -6.5935    0.0000 C   0  0
   10.4452   -5.5350    0.0000 C   0  0
   12.0042   -6.0661    0.0000 C   0  0
   11.0527   -5.0000    0.0000 C   0  0
   11.8208   -5.2522    0.0000 C   0  0
  2  3  1  0
  3  1  2  0
  4  5  2  0
  5  1  1  0
  6  2  1  0
  7  1  1  0
  8  6  1  0
  9  8  2  0
 10 11  1  0
 11  7  1  0
 12 15  2  0
 13  6  2  0
 14  7  2  0
 15 13  1  0
 16  3  1  0
 17  9  1  0
 18  4  1  0
 19 12  1  0
 20 10  1  0
 21 10  1  0
 22 20  1  0
 23 21  1  0
 24 23  1  0
  2  4  1  0
 22 24  1  0
  9 12  1  0
M  END
> <COMPOUND_ID>
DNDI1417679

$$$$

  SciTegic04051205032D

 25 28  0  0  0  0            999 V2000
    6.8236   -7.1322    0.0000 N   0  3
   10.4022   -6.7550    0.0000 C   0  0
    7.5873   -6.8049    0.0000 C   0  0
   11.1628   -7.0668    0.0000 N   0  0
   10.4147   -5.9321    0.0000 S   0  0
    7.4689   -5.9913    0.0000 S   0  0
    6.2531   -6.5212    0.0000 C   0  0
   11.6772   -6.4184    0.0000 C   0  0
    9.7039   -7.2039    0.0000 C   0  0
    8.2825   -7.2039    0.0000 C   0  0
    6.6833   -5.8230    0.0000 C   0  0
   11.2283   -5.7201    0.0000 C   0  0
    8.9839   -6.7550    0.0000 C   0  0
    6.6833   -7.9926    0.0000 C   0  0
   11.3748   -7.8398    0.0000 C   0  0
    5.4551   -6.5212    0.0000 C   0  0
   12.4627   -6.4184    0.0000 C   0  0
   11.6024   -5.0000    0.0000 C   0  0
    6.2500   -5.0842    0.0000 C   0  0
    8.9807   -5.9352    0.0000 C   0  0
    8.2731   -5.5611    0.0000 C   0  0
    5.0000   -5.8479    0.0000 C   0  0
   12.8617   -5.6359    0.0000 C   0  0
    5.4551   -5.0842    0.0000 C   0  0
   12.4627   -5.0000    0.0000 C   0  0
  2  9  2  0
  3  1  2  0
  4  2  1  0
  5  2  1  0
  6  3  1  0
  7  1  1  0
  8  4  1  0
  9 13  1  0
 10  3  1  0
 11  7  2  0
 12  5  1  0
 13 10  2  0
 14  1  1  0
 15  4  1  0
 16  7  1  0
 17  8  1  0
 18 12  1  0
 19 11  1  0
 20 13  1  0
 21 20  1  0
 22 16  2  0
 23 17  2  0
 24 22  1  0
 25 18  2  0
 11  6  1  0
 24 19  2  0
  8 12  2  0
 23 25  1  0
M  CHG  1   1   1
M  END
> <COMPOUND_ID>
DNDI1417680

$$$$

  SciTegic04051205032D

 24 26  0  0  0  0            999 V2000
    9.2775   -6.5838    0.0000 S   0  0
    8.5663   -7.0064    0.0000 C   0  0
    7.8483   -6.5976    0.0000 C   0  0
    7.1439   -7.0099    0.0000 C   0  0
   10.0059   -6.2059    0.0000 C   0  0
    8.5698   -7.8345    0.0000 C   0  0
    7.8586   -8.2468    0.0000 N   0  0
   10.6999   -6.6491    0.0000 C   0  0
   11.4283   -6.2678    0.0000 C   0  0
    8.8584   -5.8726    0.0000 O   0  0
    9.6898   -7.2985    0.0000 O   0  0
    7.1439   -7.8345    0.0000 C   0  0
    6.4224   -6.5976    0.0000 C   0  0
   10.0300   -5.3882    0.0000 C   0  0
   11.4627   -5.4363    0.0000 C   0  0
   10.7652   -5.0000    0.0000 C   0  0
    6.4224   -8.2536    0.0000 C   0  0
    7.8483   -5.7730    0.0000 O   0  0
    5.7112   -7.0167    0.0000 C   0  0
   12.1258   -6.7110    0.0000 F   0  0
    5.7112   -7.8413    0.0000 C   0  0
    5.0000   -6.6044    0.0000 Cl  0  0
   12.1910   -5.0583    0.0000 C   0  0
    7.1301   -5.3607    0.0000 C   0  0
  2  1  1  0
  3  2  2  0
  4  3  1  0
  5  1  1  0
  6  2  1  0
  7  6  2  0
  8  5  2  0
  9  8  1  0
 10  1  2  0
 11  1  2  0
 12  7  1  0
 13  4  2  0
 14  5  1  0
 15 16  1  0
 16 14  2  0
 17 12  2  0
 18  3  1  0
 19 13  1  0
 20  9  1  0
 21 17  1  0
 22 19  1  0
 23 15  1  0
 24 18  1  0
 15  9  2  0
 12  4  1  0
 21 19  2  0
M  END
> <COMPOUND_ID>
DNDI1417681

$$$$

  SciTegic04051205032D

 26 29  0  0  0  0            999 V2000
    7.1296  -10.2210    0.0000 C   0  0
    7.1296  -11.8702    0.0000 N   0  0
    7.8309  -11.4503    0.0000 C   0  0
    7.8309  -10.6279    0.0000 C   0  0
    8.5321  -11.8528    0.0000 C   0  0
    7.1513   -9.3769    0.0000 C   0  0
    6.4068  -10.6279    0.0000 C   0  0
    6.4068  -11.4503    0.0000 C   0  0
    8.6057   -6.9270    0.0000 C   0  0
    8.8784  -12.6147    0.0000 C   0  0
    9.3632  -11.9351    0.0000 C   0  0
    7.8656   -8.1606    0.0000 N   0  0
    7.9088   -6.5115    0.0000 C   0  0
    7.8656   -8.9700    0.0000 N   0  0
    9.3286   -6.5071    0.0000 C   0  0
    6.4501   -8.9570    0.0000 O   0  0
    8.5928   -7.7581    0.0000 C   0  0
    7.9002   -5.6674    0.0000 C   0  0
    9.3416   -5.6674    0.0000 C   0  0
    8.6273   -5.2561    0.0000 C   0  0
   10.0514   -5.2475    0.0000 Cl  0  0
    7.2033   -6.9183    0.0000 O   0  0
    5.7056  -10.2210    0.0000 C   0  0
    5.7056  -11.8702    0.0000 C   0  0
    5.0000  -10.6279    0.0000 C   0  0
    5.0000  -11.4503    0.0000 C   0  0
  2  3  1  0
  3  4  2  0
  4  1  1  0
  5  3  1  0
  6  1  1  0
  7  1  2  0
  8  7  1  0
  9 17  1  0
 10  5  1  0
 11  5  1  0
 12 14  1  0
 13  9  1  0
 14  6  1  0
 15  9  2  0
 16  6  2  0
 17 12  2  0
 18 13  2  0
 19 15  1  0
 20 19  2  0
 21 19  1  0
 22 13  1  0
 23  7  1  0
 24  8  1  0
 25 23  2  0
 26 25  1  0
  2  8  2  0
 10 11  1  0
 26 24  2  0
 20 18  1  0
M  END
> <COMPOUND_ID>
DNDI1417682

$$$$

  SciTegic04051205032D

 26 28  0  0  0  0            999 V2000
    7.4114   -6.2472    0.0000 C   0  0
    8.2219   -6.4845    0.0000 C   0  0
    8.4278   -7.2636    0.0000 N   0  0
    8.7682   -5.8822    0.0000 O   0  0
    7.1875   -7.0487    0.0000 C   0  0
    6.6188   -6.0322    0.0000 C   0  0
    9.2182   -7.4831    0.0000 C   0  0
    7.6173   -5.4500    0.0000 O   0  0
   10.9825   -5.7523    0.0000 C   0  0
    9.8003   -6.9076    0.0000 C   0  0
   11.5803   -5.1881    0.0000 Cl  0  0
   10.1855   -5.5441    0.0000 C   0  0
   11.1729   -6.5427    0.0000 C   0  0
    9.6145   -6.1195    0.0000 C   0  0
   10.6019   -7.1158    0.0000 C   0  0
    7.7584   -7.6308    0.0000 C   0  0
    6.3904   -7.2569    0.0000 C   0  0
    6.4106   -5.2239    0.0000 C   0  0
    6.0254   -6.6054    0.0000 C   0  0
    8.4122   -5.2351    0.0000 C   0  0
    5.6045   -5.0000    0.0000 C   0  0
    5.2127   -6.4084    0.0000 C   0  0
    7.5435   -8.4391    0.0000 C   0  0
    6.1665   -8.0562    0.0000 C   0  0
    6.7486   -8.6473    0.0000 C   0  0
    5.0000   -5.5844    0.0000 C   0  0
  2  1  1  0
  3  2  1  0
  4  2  2  0
  5  1  1  0
  6  1  1  0
  7  3  1  0
  8  1  1  0
  9 13  2  0
 10  7  1  0
 11  9  1  0
 12 14  2  0
 13 15  1  0
 14 10  1  0
 15 10  2  0
 16  5  2  0
 17  5  1  0
 18  6  1  0
 19  6  2  0
 20  8  1  0
 21 18  2  0
 22 19  1  0
 23 16  1  0
 24 17  2  0
 25 24  1  0
 26 22  2  0
 25 23  2  0
 26 21  1  0
  9 12  1  0
M  END
> <COMPOUND_ID>
DNDI1417683

$$$$

  SciTegic04051205032D

 24 26  0  0  0  0            999 V2000
    7.7023   -7.6026    0.0000 C   0  0
    7.2141   -8.2558    0.0000 N   0  0
    7.2141   -6.9218    0.0000 N   0  0
    6.4234   -7.1866    0.0000 C   0  0
    6.4234   -8.0048    0.0000 C   0  0
    8.5172   -7.6026    0.0000 N   0  0
    9.8855   -9.5726    0.0000 C   0  0
   10.6970   -9.7446    0.0000 C   0  0
    9.3355  -10.1846    0.0000 C   0  0
    9.5864  -10.9685    0.0000 C   0  0
    7.4686   -9.0432    0.0000 C   0  0
   10.9479  -10.5353    0.0000 C   0  0
    7.4686   -6.1379    0.0000 C   0  0
    9.6689   -8.7681    0.0000 Cl  0  0
   10.3978  -11.1370    0.0000 C   0  0
    8.5172  -10.0058    0.0000 O   0  0
   11.7421  -10.7451    0.0000 Cl  0  0
    5.7117   -6.7671    0.0000 C   0  0
    5.7117   -8.4243    0.0000 C   0  0
    8.2662   -9.2185    0.0000 C   0  0
    8.6822   -5.2475    0.0000 O   0  0
    8.2662   -5.9592    0.0000 C   0  0
    5.0000   -8.0048    0.0000 C   0  0
    5.0000   -7.1866    0.0000 C   0  0
  2  1  1  0
  3  1  1  0
  4  3  1  0
  5  2  1  0
  6  1  2  0
  7  9  1  0
  8  7  2  0
  9 16  1  0
 10  9  2  0
 11  2  1  0
 12 15  2  0
 13  3  1  0
 14  7  1  0
 15 10  1  0
 16 20  1  0
 17 12  1  0
 18  4  1  0
 19  5  1  0
 20 11  1  0
 21 22  1  0
 22 13  1  0
 23 19  2  0
 24 18  2  0
  5  4  2  0
 23 24  1  0
 12  8  1  0
M  END
> <COMPOUND_ID>
DNDI1417684

$$$$

  SciTegic04051205032D

 22 23  0  0  0  0            999 V2000
    7.0662   -8.3966    0.0000 C   0  0
    6.2680   -8.6128    0.0000 C   0  0
    7.6524   -8.9787    0.0000 C   0  0
    7.2825   -7.5983    0.0000 O   0  0
    6.0560   -9.4110    0.0000 C   0  0
    7.4321   -9.7810    0.0000 C   0  0
    6.6422   -9.9930    0.0000 C   0  0
    5.6860   -8.0224    0.0000 Br  0  0
    8.0807   -7.3863    0.0000 C   0  0
    8.4507   -8.7707    0.0000 O   0  0
    5.7109  -11.2071    0.0000 N   0  0
    8.2927   -6.5881    0.0000 C   0  0
    5.0000  -13.2650    0.0000 O   0  0
    6.4260  -10.7913    0.0000 C   0  0
    5.7109  -12.0260    0.0000 C   0  0
    5.0000  -12.4418    0.0000 C   0  0
    9.0286   -9.3529    0.0000 C   0  0
    9.0827   -6.3802    0.0000 C   0  0
    7.7065   -6.0102    0.0000 C   0  0
    7.9227   -5.2078    0.0000 C   0  0
    9.3030   -5.5820    0.0000 C   0  0
    8.7210   -5.0000    0.0000 C   0  0
  2  1  2  0
  3  1  1  0
  4  1  1  0
  5  2  1  0
  6  3  2  0
  7  5  2  0
  8  2  1  0
  9  4  1  0
 10  3  1  0
 11 14  1  0
 12  9  1  0
 13 16  1  0
 14  7  1  0
 15 11  1  0
 16 15  1  0
 17 10  1  0
 18 12  1  0
 19 12  2  0
 20 19  1  0
 21 18  2  0
 22 20  2  0
  7  6  1  0
 22 21  1  0
M  END
> <COMPOUND_ID>
DNDI1417685

$$$$

  SciTegic04051205032D

 27 30  0  0  0  0            999 V2000
   11.8194   -6.2793    0.0000 N   0  0
   11.4480   -7.0187    0.0000 C   0  0
   12.6345   -6.4134    0.0000 C   0  0
   12.0326   -7.5965    0.0000 N   0  0
   12.7686   -7.2251    0.0000 O   0  0
    7.8887   -8.2980    0.0000 C   0  0
    7.0737   -8.4321    0.0000 N   0  0
    6.5578   -7.7890    0.0000 C   0  0
    8.1879   -7.5311    0.0000 N   0  0
   10.6330   -7.1459    0.0000 C   0  0
    6.8536   -7.0187    0.0000 C   0  0
    8.4114   -8.9445    0.0000 O   0  0
    6.3309   -6.3825    0.0000 C   0  0
   13.2225   -5.8253    0.0000 C   0  0
    5.7428   -7.9163    0.0000 C   0  0
   10.1137   -6.5063    0.0000 C   0  0
   10.3338   -7.9163    0.0000 C   0  0
    9.0029   -7.4004    0.0000 C   0  0
    5.5158   -6.5063    0.0000 C   0  0
    5.2167   -7.2766    0.0000 C   0  0
    9.2987   -6.6370    0.0000 C   0  0
    9.5188   -8.0401    0.0000 C   0  0
    5.0000   -5.8666    0.0000 F   0  0
   14.0479   -5.0000    0.0000 C   0  0
    7.6686   -6.8949    0.0000 C   0  0
   13.2225   -5.0000    0.0000 C   0  0
   14.0479   -5.8253    0.0000 C   0  0
  2  1  1  0
  3  1  2  0
  4  2  2  0
  5  3  1  0
  6  9  1  0
  7  6  1  0
  8  7  1  0
  9 18  1  0
 10  2  1  0
 11  8  2  0
 12  6  2  0
 13 11  1  0
 14  3  1  0
 15  8  1  0
 16 10  2  0
 17 10  1  0
 18 22  1  0
 19 20  1  0
 20 15  2  0
 21 16  1  0
 22 17  2  0
 23 19  1  0
 24 27  1  0
 25 11  1  0
 26 14  1  0
 27 14  1  0
  4  5  1  0
 24 26  1  0
 21 18  2  0
 13 19  2  0
M  END
> <COMPOUND_ID>
DNDI1417686

$$$$

  SciTegic04051205032D

 26 28  0  0  0  0            999 V2000
    7.1248   -7.4992    0.0000 C   0  0
    7.1248   -8.3193    0.0000 C   0  0
    6.4178   -7.0767    0.0000 C   0  0
    6.4178   -8.7278    0.0000 N   0  0
    6.4178   -6.2567    0.0000 C   0  0
    7.8547   -7.0647    0.0000 C   0  0
    8.5947   -6.6382    0.0000 N   0  0
    7.8317   -8.7278    0.0000 S   0  0
    9.9844   -8.3193    0.0000 C   0  0
    9.9844   -7.4912    0.0000 C   0  0
   10.6853   -7.0647    0.0000 C   0  0
    9.2695   -8.7278    0.0000 C   0  0
    7.0797   -5.8030    0.0000 O   0  0
    5.7089   -7.4992    0.0000 C   0  0
    5.7089   -8.3193    0.0000 C   0  0
   11.4213   -7.4662    0.0000 C   0  0
    5.7540   -5.7731    0.0000 C   0  0
    8.5616   -8.3193    0.0000 C   0  0
    6.8303   -5.0000    0.0000 C   0  0
   10.7184   -8.7128    0.0000 C   0  0
    6.0133   -5.0000    0.0000 C   0  0
    9.2695   -9.5659    0.0000 O   0  0
   11.4263   -8.2893    0.0000 C   0  0
   10.6583   -6.2526    0.0000 O   0  0
   12.1232   -7.0317    0.0000 O   0  0
    5.0000   -8.7278    0.0000 C   0  0
  2  1  2  0
  3  1  1  0
  4  2  1  0
  5  3  1  0
  6  1  1  0
  7  6  3  0
  8  2  1  0
  9 12  1  0
 10  9  1  0
 11 10  2  0
 12 18  1  0
 13  5  1  0
 14  3  2  0
 15 14  1  0
 16 23  2  0
 17  5  2  0
 18  8  1  0
 19 13  1  0
 20  9  2  0
 21 17  1  0
 22 12  2  0
 23 20  1  0
 24 11  1  0
 25 16  1  0
 26 15  1  0
  4 15  2  0
 19 21  2  0
 11 16  1  0
M  END
> <COMPOUND_ID>
DNDI1417687

$$$$

  SciTegic04051205032D

 27 30  0  0  0  0            999 V2000
    8.0235   -7.1301    0.0000 C   0  0
    8.7382   -7.5515    0.0000 N   0  0
    7.3089   -7.5515    0.0000 C   0  0
    8.7382   -8.3852    0.0000 C   0  0
    8.0235   -6.3009    0.0000 N   0  0
    7.3044   -8.3761    0.0000 C   0  0
    8.0235   -8.7930    0.0000 N   0  0
    6.5943   -7.1393    0.0000 C   0  0
    6.5943   -8.7930    0.0000 C   0  0
    9.4528   -8.7930    0.0000 C   0  0
    5.8796   -7.5515    0.0000 C   0  0
    5.8796   -8.3852    0.0000 C   0  0
    8.7337   -5.8795    0.0000 C   0  0  2  0  0  0
   10.1537  -10.0344    0.0000 N   0  0
    7.4051   -5.7512    0.0000 C   0  0
    9.4483   -9.6176    0.0000 C   0  0
    5.1650   -7.1439    0.0000 O   0  0
    5.1650   -8.7930    0.0000 O   0  0
   10.1629   -8.3852    0.0000 C   0  0
   10.2042   -5.7971    0.0000 O   0  0
    7.7349   -5.0000    0.0000 C   0  0
    9.4940   -6.2094    0.0000 C   0  0
   10.8683   -9.6176    0.0000 C   0  0
    8.5595   -5.0778    0.0000 C   0  0
    5.1650   -6.3193    0.0000 C   0  0
    5.1605   -9.6176    0.0000 C   0  0
   10.8683   -8.7930    0.0000 C   0  0
  2  1  2  0
  3  1  1  0
  4  2  1  0
  5  1  1  0
  6  3  1  0
  7  4  2  0
  8  3  2  0
  9  6  2  0
 10  4  1  0
 11  8  1  0
 12 11  2  0
 13  5  1  0
 14 16  1  0
 15  5  1  0
 16 10  2  0
 17 11  1  0
 18 12  1  0
 19 10  1  0
 20 22  1  0
 21 15  1  0
 13 22  1  1
 23 14  2  0
 24 13  1  0
 25 17  1  0
 26 18  1  0
 27 19  2  0
  7  6  1  0
 21 24  1  0
 12  9  1  0
 23 27  1  0
M  END
> <COMPOUND_ID>
DNDI1417688

$$$$

  SciTegic04051205032D

 27 29  0  0  0  0            999 V2000
    7.1451   -7.3608    0.0000 N   0  0
    7.6177   -8.0016    0.0000 N   0  0
    7.1451   -8.6560    0.0000 N   0  0
    7.1678   -6.5654    0.0000 C   0  0
    6.3816   -7.6152    0.0000 C   0  0
    7.8768   -6.1836    0.0000 C   0  0
    6.3816   -8.4106    0.0000 C   0  0
   12.1306   -7.8652    0.0000 C   0  0
   11.7125   -8.5742    0.0000 C   0  0
   11.7125   -7.1562    0.0000 C   0  0
   10.8945   -7.1562    0.0000 C   0  0
    9.4220   -6.4473    0.0000 N   0  0
   12.1216   -9.2832    0.0000 N   0  0
    8.5631   -6.5972    0.0000 N   0  0
    7.8677   -5.2475    0.0000 O   0  0
   10.8945   -8.5742    0.0000 C   0  0
   10.4855   -7.8652    0.0000 C   0  0
   10.4855   -6.4473    0.0000 C   0  0
   12.1216   -6.4473    0.0000 O   0  0
    5.6953   -7.2108    0.0000 C   0  0
    5.6953   -8.8150    0.0000 C   0  0
   11.7125   -9.9921    0.0000 C   0  0
   12.9396   -9.2832    0.0000 C   0  0
   12.1216  -10.7011    0.0000 C   0  0
   13.3486   -9.9921    0.0000 C   0  0
    5.0000   -7.6152    0.0000 C   0  0
    5.0000   -8.4106    0.0000 C   0  0
  2  1  1  0
  3  2  2  0
  4  1  1  0
  5  1  1  0
  6  4  1  0
  7  5  2  0
  8 10  2  0
  9 16  2  0
 10 11  1  0
 11 18  1  0
 12 14  1  0
 13  9  1  0
 14  6  1  0
 15  6  2  0
 16 17  1  0
 17 11  2  0
 18 12  2  0
 19 10  1  0
 20  5  1  0
 21  7  1  0
 22 13  1  0
 23 13  1  0
 24 22  1  0
 25 23  1  0
 26 20  2  0
 27 26  1  0
  7  3  1  0
 21 27  2  0
  8  9  1  0
M  END
> <COMPOUND_ID>
DNDI1417689

$$$$

  SciTegic04051205032D

 27 29  0  0  0  0            999 V2000
    6.6708   -6.4233    0.0000 N   0  0
    7.4719   -7.5165    0.0000 C   0  0
    7.4719   -6.6673    0.0000 C   0  0
    6.1758   -7.0833    0.0000 C   0  0
    6.6708   -7.7744    0.0000 C   0  0
   10.3804   -7.5302    0.0000 C   0  0
   11.1126   -7.9428    0.0000 C   0  0
    9.6481   -7.9428    0.0000 N   0  0
    8.1869   -6.2548    0.0000 C   0  0
    8.1869   -7.9428    0.0000 C   0  0
    8.9330   -7.5302    0.0000 C   0  0
   10.3804   -6.6880    0.0000 O   0  0
   11.1126   -8.7851    0.0000 O   0  0
   11.8414   -7.5302    0.0000 N   0  0
    8.9330   -6.6673    0.0000 C   0  0
    6.4164   -5.6222    0.0000 C   0  0
   14.4852   -7.5337    0.0000 N   0  0
    5.3473   -7.1795    0.0000 C   0  0
    6.3271   -8.5479    0.0000 C   0  0
   13.1719   -7.5337    0.0000 C   0  0
   12.5118   -7.9084    0.0000 C   0  0
   13.8251   -7.9221    0.0000 C   0  0
   14.4989   -6.7739    0.0000 C   0  0
   15.1556   -7.9291    0.0000 C   0  0
    6.9802   -5.0000    0.0000 C   0  0
    5.0000   -7.9428    0.0000 C   0  0
    5.4847   -8.6166    0.0000 C   0  0
  2  3  2  0
  3  1  1  0
  4  1  1  0
  5  4  2  0
  6  8  1  0
  7  6  1  0
  8 11  1  0
  9  3  1  0
 10  2  1  0
 11 15  1  0
 12  6  2  0
 13  7  2  0
 14  7  1  0
 15  9  2  0
 16  1  1  0
 17 22  1  0
 18  4  1  0
 19  5  1  0
 20 21  1  0
 21 14  1  0
 22 20  1  0
 23 17  1  0
 24 17  1  0
 25 16  1  0
 26 18  2  0
 27 26  1  0
  5  2  1  0
 19 27  2  0
 11 10  2  0
M  END
> <COMPOUND_ID>
DNDI1417690

$$$$

  SciTegic04051205032D

 26 28  0  0  0  0            999 V2000
    9.3077   -6.2405    0.0000 C   0  0
   10.0200   -6.6572    0.0000 C   0  0
    8.5809   -6.6621    0.0000 C   0  0
   10.7322   -6.2405    0.0000 C   0  0
    8.5809   -7.4858    0.0000 N   0  0
    9.3077   -5.4265    0.0000 C   0  0
    7.8637   -7.8831    0.0000 C   0  0
    7.8637   -6.2405    0.0000 C   0  0
   11.4445   -6.6572    0.0000 N   0  0
   10.7322   -5.4216    0.0000 C   0  0
   10.0200   -5.0146    0.0000 C   0  0
    7.1417   -7.4761    0.0000 O   0  0
    7.1417   -6.6572    0.0000 C   0  0
    7.8540   -5.4119    0.0000 C   0  0
   10.0200   -7.4761    0.0000 O   0  0
    6.4246   -5.4119    0.0000 C   0  0
    5.7123   -5.0049    0.0000 S   0  0
    6.4246   -6.2405    0.0000 C   0  0
    7.1417   -5.0000    0.0000 C   0  0
    7.8540   -8.7117    0.0000 C   0  0
   12.1568   -6.2405    0.0000 C   0  0
   11.4445   -5.0049    0.0000 C   0  0
    5.0000   -5.4216    0.0000 C   0  0
    7.1369   -9.1284    0.0000 C   0  0
   12.1568   -5.4265    0.0000 C   0  0
    7.1272   -9.9473    0.0000 C   0  0
  2  1  1  0
  3  1  1  0
  4  2  2  0
  5  3  1  0
  6  1  2  0
  7  5  1  0
  8  3  1  0
  9  4  1  0
 10 11  2  0
 11  6  1  0
 12  7  2  0
 13  8  1  0
 14  8  2  0
 15  2  1  0
 16 19  2  0
 17 16  1  0
 18 13  2  0
 19 14  1  0
 20  7  1  0
 21  9  2  0
 22 10  1  0
 23 17  1  0
 24 20  1  0
 25 22  2  0
 26 24  1  0
 10  4  1  0
 16 18  1  0
 25 21  1  0
M  END
> <COMPOUND_ID>
DNDI1417691

$$$$

  SciTegic04051205032D

 24 27  0  0  0  0            999 V2000
    6.6258   -6.3406    0.0000 S   0  0
    9.4513   -6.3406    0.0000 N   0  0
    8.0454   -6.3406    0.0000 C   0  0
    8.7467   -6.7462    0.0000 C   0  0
    7.3339   -6.7462    0.0000 C   0  0
    9.2760   -5.5432    0.0000 C   0  0
    6.2202   -7.0488    0.0000 N   0  0
    8.7467   -7.5609    0.0000 C   0  0
    8.2174   -5.5432    0.0000 C   0  0
    9.4513   -7.9665    0.0000 S   0  0
   10.1560   -6.7462    0.0000 C   0  0
    7.0349   -5.6291    0.0000 O   0  0
    5.9178   -5.9351    0.0000 O   0  0
    7.3339   -7.5609    0.0000 C   0  0
    8.0454   -7.9665    0.0000 C   0  0
    9.8810   -5.0000    0.0000 O   0  0
   10.1560   -7.5609    0.0000 C   0  0
    5.4056   -7.0556    0.0000 C   0  0
    6.6327   -7.7500    0.0000 C   0  0
    6.2237   -8.4649    0.0000 C   0  0
    5.0000   -7.7603    0.0000 C   0  0
    5.4125   -8.4752    0.0000 C   0  0
   10.8675   -7.9734    0.0000 C   0  0
    5.0034   -9.1902    0.0000 C   0  0
  2  4  1  0
  3  5  1  0
  4  3  2  0
  5  1  1  0
  6  9  1  0
  7  1  1  0
  8 15  2  0
  9  3  1  0
 10  8  1  0
 11  2  1  0
 12  1  2  0
 13  1  2  0
 14  5  2  0
 15 14  1  0
 16  6  2  0
 17 10  1  0
 18  7  1  0
 19  7  1  0
 20 19  1  0
 21 18  1  0
 22 20  1  0
 23 17  1  0
 24 22  1  0
 21 22  1  0
  4  8  1  0
  6  2  1  0
 11 17  1  0
M  END
> <COMPOUND_ID>
DNDI1417692

$$$$

  SciTegic04051205032D

 26 28  0  0  0  0            999 V2000
    9.3523   -6.8387    0.0000 N   0  3
    9.7969   -6.1990    0.0000 C   0  0
    9.3523   -5.5283    0.0000 S   0  0
    8.5723   -6.6047    0.0000 C   0  0
    8.5723   -5.7857    0.0000 C   0  0
   10.6314   -6.1990    0.0000 C   0  0
    7.8548   -5.3645    0.0000 C   0  0
    7.8548   -7.0259    0.0000 C   0  0
   11.0371   -6.9089    0.0000 C   0  0
    5.7254   -5.6374    0.0000 C   0  0
    6.4274   -5.2475    0.0000 N   0  0
    7.1294   -5.7544    0.0000 C   0  0
   13.4707   -6.9089    0.0000 C   0  0
   14.2896   -6.9089    0.0000 N   0  0
    5.6786   -6.4643    0.0000 O   0  0
    9.6097   -7.6264    0.0000 C   0  0
   13.0650   -7.6264    0.0000 C   0  0
   13.0650   -6.1990    0.0000 C   0  0
   11.8248   -6.9089    0.0000 C   0  0
    7.1294   -6.6047    0.0000 C   0  0
   12.2305   -7.6264    0.0000 C   0  0
   12.2305   -6.1990    0.0000 C   0  0
    5.0000   -5.2241    0.0000 C   0  0
   14.7108   -7.6264    0.0000 C   0  0
   14.7108   -6.1990    0.0000 C   0  0
   10.4442   -7.8136    0.0000 C   0  0
  2  1  2  0
  3  2  1  0
  4  1  1  0
  5  4  2  0
  6  2  1  0
  7  5  1  0
  8  4  1  0
  9  6  2  0
 10 11  1  0
 11 12  1  0
 12 20  1  0
 13 18  1  0
 14 13  1  0
 15 10  2  0
 16  1  1  0
 17 21  1  0
 18 22  2  0
 19  9  1  0
 20  8  2  0
 21 19  2  0
 22 19  1  0
 23 10  1  0
 24 14  1  0
 25 14  1  0
 26 16  1  0
  3  5  1  0
  7 12  2  0
 13 17  2  0
M  CHG  1   1   1
M  END
> <COMPOUND_ID>
DNDI1417693

$$$$

  SciTegic04051205032D

 27 29  0  0  0  0            999 V2000
    6.4425   -6.2394    0.0000 C   0  0
    7.8560   -6.2394    0.0000 C   0  0
    7.1596   -5.8207    0.0000 C   0  0
    7.1596   -7.4829    0.0000 C   0  0
    6.4301   -7.0519    0.0000 C   0  0
    7.8602   -7.0519    0.0000 C   0  0
    7.8560   -8.7058    0.0000 N   0  0
    7.1596   -8.2830    0.0000 C   0  0
    8.5814   -5.8207    0.0000 C   0  0
    5.7171   -5.8083    0.0000 C   0  0
    5.0207   -9.5265    0.0000 N   0  0
    6.4301   -8.7058    0.0000 C   0  0
    7.1596   -5.0000    0.0000 O   0  0
    7.8602   -9.5223    0.0000 C   0  0
    8.6519   -8.4446    0.0000 C   0  0
    9.0001   -6.5378    0.0000 C   0  0
    9.2985   -5.3979    0.0000 C   0  0
    5.0000   -5.3937    0.0000 C   0  0
    5.2985   -6.5378    0.0000 C   0  0
    6.1441   -5.0953    0.0000 C   0  0
    8.1545   -5.0953    0.0000 C   0  0
    5.0207   -8.7058    0.0000 C   0  0
    5.7213   -9.9369    0.0000 C   0  0
    5.7213   -8.2830    0.0000 C   0  0
    6.4301   -9.5223    0.0000 C   0  0
    9.1162   -9.1244    0.0000 C   0  0
    8.6519   -9.7752    0.0000 C   0  0
  2  3  2  0
  3  1  1  0
  4  5  1  0
  5  1  2  0
  6  4  2  0
  7  8  1  0
  8  4  1  0
  9  2  1  0
 10  1  1  0
 11 23  1  0
 12  8  1  0
 13  3  1  0
 14  7  1  0
 15  7  1  0
 16  9  1  0
 17  9  1  0
 18 10  1  0
 19 10  1  0
 20 10  1  0
 21  9  1  0
 22 24  1  0
 23 25  2  0
 24 12  2  0
 25 12  1  0
 26 15  1  0
 27 14  1  0
  2  6  1  0
 11 22  2  0
 26 27  1  0
M  END
> <COMPOUND_ID>
DNDI1417694

$$$$

  SciTegic04051205032D

 24 26  0  0  0  0            999 V2000
    6.9644   -6.7999    0.0000 N   0  0
    6.7105   -6.0133    0.0000 C   0  0
    7.7926   -6.8040    0.0000 C   0  0
    8.0507   -6.0133    0.0000 C   0  0
    7.3806   -5.5264    0.0000 S   0  0
    6.4733   -7.4574    0.0000 C   0  0
    6.7937   -8.2149    0.0000 C   0  0
    8.8331   -5.7594    0.0000 C   0  0
    6.3027   -8.8725    0.0000 N   0  0
    9.4491   -6.3170    0.0000 C   0  0
    5.9281   -5.7594    0.0000 O   0  0
    8.2795   -7.4657    0.0000 O   0  0
    7.6137   -8.3107    0.0000 O   0  0
   10.2315   -6.0466    0.0000 C   0  0
    5.3246  -10.1876    0.0000 O   0  0
   10.4021   -5.2475    0.0000 Cl  0  0
    6.6356   -9.6217    0.0000 C   0  0
    5.4911   -8.7726    0.0000 C   0  0
    9.2659   -7.1120    0.0000 C   0  0
    6.1404  -10.2834    0.0000 C   0  0
    5.0000   -9.4302    0.0000 C   0  0
   10.8558   -6.6209    0.0000 C   0  0
    9.8902   -7.6780    0.0000 C   0  0
   10.6685   -7.4158    0.0000 C   0  0
  2  1  1  0
  3  1  1  0
  4  3  1  0
  5  2  1  0
  6  1  1  0
  7  6  1  0
  8  4  2  0
  9  7  1  0
 10  8  1  0
 11  2  2  0
 12  3  2  0
 13  7  2  0
 14 10  2  0
 15 20  1  0
 16 14  1  0
 17  9  1  0
 18  9  1  0
 19 10  1  0
 20 17  1  0
 21 18  1  0
 22 14  1  0
 23 19  2  0
 24 23  1  0
  5  4  1  0
 15 21  1  0
 24 22  2  0
M  END
> <COMPOUND_ID>
DNDI1417695

$$$$

  SciTegic04051205032D

 26 29  0  0  0  0            999 V2000
    7.8517   -7.0796    0.0000 C   0  0
    6.4321   -7.0796    0.0000 C   0  0
    7.1419   -7.4988    0.0000 C   0  0
    6.4321   -6.2536    0.0000 C   0  0
    7.1419   -5.8468    0.0000 C   0  0
    7.8517   -6.2536    0.0000 C   0  0
    8.5739   -8.3249    0.0000 N   0  0
    8.5739   -7.4988    0.0000 C   0  0
    5.7223   -7.4988    0.0000 N   0  0
    7.1419   -5.0000    0.0000 Cl  0  0
    7.8517   -8.7358    0.0000 C   0  0
    9.2837   -8.7358    0.0000 C   0  0
    7.1419   -8.3249    0.0000 O   0  0
    8.5739  -10.7988    0.0000 C   0  0
    8.5739   -9.9687    0.0000 C   0  0
    7.8517  -11.2015    0.0000 C   0  0
    9.2837   -9.5577    0.0000 C   0  0
    7.8517   -9.5535    0.0000 C   0  0
    5.7223   -5.8468    0.0000 C   0  0
    5.0000   -7.0796    0.0000 C   0  0
    7.1419  -10.7988    0.0000 C   0  0
    7.8517  -12.0316    0.0000 C   0  0
    5.0000   -6.2536    0.0000 C   0  0
    7.1419  -12.4343    0.0000 C   0  0
    6.4321  -11.2015    0.0000 C   0  0
    6.4321  -12.0234    0.0000 C   0  0
  2  3  1  0
  3  1  2  0
  4  5  1  0
  5  6  2  0
  6  1  1  0
  7  8  1  0
  8  1  1  0
  9  2  1  0
 10  5  1  0
 11  7  1  0
 12  7  1  0
 13  3  1  0
 14 15  1  0
 15 17  1  0
 16 14  1  0
 17 12  1  0
 18 11  1  0
 19  4  1  0
 20  9  2  0
 21 16  2  0
 22 16  1  0
 23 19  2  0
 24 22  2  0
 25 21  1  0
 26 24  1  0
  2  4  2  0
 15 18  1  0
 23 20  1  0
 26 25  2  0
M  END
> <COMPOUND_ID>
DNDI1417696

$$$$

  SciTegic04051205032D

 24 25  0  0  0  0            999 V2000
   12.0294   -5.7242    0.0000 C   0  0
    7.0613   -7.1557    0.0000 C   0  0
    6.2294   -7.1557    0.0000 C   0  0
    7.4756   -6.4282    0.0000 C   0  0
   11.1941   -5.7242    0.0000 C   0  0
    8.2840   -6.4282    0.0000 O   0  0
   12.4470   -5.0000    0.0000 O   0  0
   12.4470   -6.4282    0.0000 N   0  0
   10.7798   -6.4282    0.0000 C   0  0
   10.8068   -5.0236    0.0000 C   0  0
    7.0613   -5.7242    0.0000 C   0  0
    5.8185   -6.4282    0.0000 C   0  0
    7.4622   -7.8731    0.0000 Cl  0  0
    8.6982   -5.7242    0.0000 C   0  0
   14.5050   -7.1557    0.0000 N   0  0
    9.5571   -5.7242    0.0000 C   0  0
    6.2294   -5.7242    0.0000 C   0  0
    9.9748   -5.0000    0.0000 C   0  0
    9.9748   -6.4282    0.0000 C   0  0
    5.0000   -6.4147    0.0000 Cl  0  0
   13.2790   -6.4282    0.0000 C   0  0
   13.6967   -7.1557    0.0000 C   0  0
   14.9193   -6.4282    0.0000 C   0  0
   14.9193   -7.8596    0.0000 C   0  0
  2  4  2  0
  3  2  1  0
  4  6  1  0
  5  1  1  0
  6 14  1  0
  7  1  2  0
  8  1  1  0
  9  5  2  0
 10  5  1  0
 11  4  1  0
 12 17  1  0
 13  2  1  0
 14 16  1  0
 15 22  1  0
 16 18  1  0
 17 11  2  0
 18 10  2  0
 19  9  1  0
 20 12  1  0
 21  8  1  0
 22 21  1  0
 23 15  1  0
 24 15  1  0
 19 16  2  0
 12  3  2  0
M  END
> <COMPOUND_ID>
DNDI1417697

$$$$

  SciTegic04051205032D

 24 26  0  0  0  0            999 V2000
    7.9080   -7.9183    0.0000 N   0  0
    7.1312   -6.8528    0.0000 C   0  0
    7.9080   -6.5847    0.0000 C   0  0
    7.1312   -7.6811    0.0000 C   0  0
    8.3823   -7.2515    0.0000 C   0  0
    8.1967   -8.6986    0.0000 C   0  0
    6.4231   -8.0799    0.0000 C   0  0
    9.2108   -7.1758    0.0000 C   0  0
    8.2621   -5.8284    0.0000 C   0  0
    6.4231   -6.4231    0.0000 C   0  0
    9.0045   -8.8670    0.0000 C   0  0
    9.2658   -9.6645    0.0000 C   0  0
    9.0905   -5.7562    0.0000 C   0  0
    5.7012   -6.8219    0.0000 C   0  0
   10.0701   -9.8363    0.0000 N   0  0
    9.5649   -6.4231    0.0000 C   0  0
    5.7012   -7.6811    0.0000 C   0  0
    5.0000   -6.4024    0.0000 Cl  0  0
    9.4754   -5.0000    0.0000 Cl  0  0
    9.5476   -8.2724    0.0000 O   0  0
   11.3969  -11.5413    0.0000 O   0  0
   10.3313  -10.6132    0.0000 C   0  0
   10.6132   -9.2211    0.0000 C   0  0
   11.1357  -10.7851    0.0000 C   0  0
  2  4  2  0
  3  5  1  0
  4  1  1  0
  5  1  1  0
  6  1  1  0
  7  4  1  0
  8  5  2  0
  9  3  2  0
 10  2  1  0
 11  6  1  0
 12 11  1  0
 13 16  2  0
 14 17  1  0
 15 12  1  0
 16  8  1  0
 17  7  2  0
 18 14  1  0
 19 13  1  0
 20 11  1  0
 21 24  1  0
 22 15  1  0
 23 15  1  0
 24 22  1  0
  2  3  1  0
 13  9  1  0
 14 10  2  0
M  END
> <COMPOUND_ID>
DNDI1417698

$$$$

  SciTegic04051205032D

 25 27  0  0  0  0            999 V2000
    9.9646   -7.1464    0.0000 C   0  0
    6.6665   -7.1464    0.0000 S   0  0
    6.2245   -9.2899    0.0000 N   0  0
    6.2536   -6.4251    0.0000 C   0  0
    5.4217   -6.4251    0.0000 C   0  0
    9.1416   -7.1464    0.0000 C   0  0
    5.0087   -7.1464    0.0000 O   0  0
   10.7819   -7.0911    0.0000 F   0  0
   10.4271   -7.8851    0.0000 F   0  0
   10.3108   -6.4484    0.0000 F   0  0
    8.7257   -6.4251    0.0000 C   0  0
    8.7257   -7.8589    0.0000 C   0  0
    7.4809   -7.1464    0.0000 C   0  0
    5.4159   -7.8589    0.0000 C   0  0
    6.2303   -7.8589    0.0000 C   0  0
    5.0000   -8.5686    0.0000 C   0  0
    6.6520   -8.5773    0.0000 C   0  0
    5.4159   -9.2812    0.0000 C   0  0
    7.9026   -6.4251    0.0000 C   0  0
    7.9026   -7.8589    0.0000 C   0  0
    6.6142  -10.0170    0.0000 C   0  0
    6.6665   -5.7125    0.0000 C   0  0
    5.0087   -5.7125    0.0000 C   0  0
    5.4217   -5.0000    0.0000 C   0  0
    6.2536   -5.0000    0.0000 C   0  0
  2 13  1  0
  3 18  1  0
  4  2  1  0
  5  4  2  0
  6  1  1  0
  7  5  1  0
  8  1  1  0
  9  1  1  0
 10  1  1  0
 11  6  1  0
 12  6  2  0
 13 20  2  0
 14  7  1  0
 15 14  1  0
 16 14  1  0
 17 15  1  0
 18 16  1  0
 19 11  2  0
 20 12  1  0
 21  3  1  0
 22  4  1  0
 23  5  1  0
 24 25  1  0
 25 22  2  0
 19 13  1  0
 24 23  2  0
  3 17  1  0
M  END
> <COMPOUND_ID>
DNDI1417699

$$$$

  SciTegic04051205032D

 28 30  0  0  0  0            999 V2000
    9.9913   -7.2281    0.0000 C   0  0
    8.7248   -7.9095    0.0000 N   0  0
    9.1356   -7.2187    0.0000 O   0  0
    7.5278   -7.1565    0.0000 C   0  0
    7.5278   -8.5879    0.0000 C   0  0
    7.9313   -7.8971    0.0000 C   0  0
   10.3803   -7.9500    0.0000 C   0  0
    6.6990   -8.5879    0.0000 C   0  0
    6.7115   -7.1565    0.0000 C   0  0
   10.3927   -6.4875    0.0000 O   0  0
    9.9695   -8.6191    0.0000 C   0  0
   11.2142   -7.9593    0.0000 C   0  0
    6.2904   -6.4377    0.0000 C   0  0
    6.2592   -9.3098    0.0000 C   0  0
   11.6281   -8.6501    0.0000 C   0  0
   10.3709   -9.3503    0.0000 C   0  0
   11.2049   -9.3503    0.0000 C   0  0
   11.6281  -10.0909    0.0000 C   0  0
    6.7208   -5.7427    0.0000 C   0  0
    5.4657   -6.4252    0.0000 C   0  0
    6.6368  -10.0380    0.0000 C   0  0
    5.4346   -9.2663    0.0000 C   0  0
    6.2976   -5.0000    0.0000 C   0  0
    5.0623   -5.7002    0.0000 C   0  0
    6.2043  -10.7506    0.0000 C   0  0
    5.0000   -9.9664    0.0000 C   0  0
    5.4968   -5.0000    0.0000 C   0  0
    5.3827  -10.6977    0.0000 C   0  0
  2  3  1  0
  3  1  1  0
  4  6  1  0
  5  6  1  0
  6  2  2  0
  7  1  1  0
  8  5  2  0
  9  4  2  0
 10  1  2  0
 11  7  2  0
 12  7  1  0
 13  9  1  0
 14  8  1  0
 15 12  2  0
 16 11  1  0
 17 15  1  0
 18 17  1  0
 19 13  2  0
 20 13  1  0
 21 14  1  0
 22 14  2  0
 23 19  1  0
 24 20  2  0
 25 21  2  0
 26 22  1  0
 27 24  1  0
 28 26  2  0
 16 17  2  0
 25 28  1  0
 23 27  2  0
M  END
> <COMPOUND_ID>
DNDI1417700

$$$$

  SciTegic04051205032D

 23 25  0  0  0  0            999 V2000
    6.3507   -6.0001    0.0000 S   0  0
    9.8631   -5.7252    0.0000 C   0  0
    9.6122   -6.5156    0.0000 N   0  0
   10.6502   -5.4743    0.0000 N   0  0
    9.2032   -5.2509    0.0000 S   0  0
    7.1721   -6.1720    0.0000 C   0  0
   11.2550   -6.0345    0.0000 C   0  0
    8.5296   -5.7252    0.0000 C   0  0
    8.7873   -6.5156    0.0000 C   0  0
   12.0421   -5.7836    0.0000 C   0  0
    7.7288   -5.5602    0.0000 C   0  0
    5.5395   -5.8386    0.0000 N   0  0
   12.7156   -6.2716    0.0000 S   0  0
    6.1891   -6.8146    0.0000 O   0  0
    6.5156   -5.1890    0.0000 O   0  0
   11.0797   -6.8352    0.0000 O   0  0
   12.3067   -5.0000    0.0000 C   0  0
    7.4263   -6.9521    0.0000 C   0  0
   13.3824   -5.7870    0.0000 C   0  0
    8.2272   -7.1274    0.0000 C   0  0
   13.1315   -5.0137    0.0000 C   0  0
    5.0000   -6.4641    0.0000 C   0  0
    5.2749   -5.0618    0.0000 C   0  0
  2  5  1  0
  3  9  1  0
  4  2  1  0
  5  8  1  0
  6  1  1  0
  7  4  1  0
  8 11  1  0
  9 20  1  0
 10  7  1  0
 11  6  2  0
 12  1  1  0
 13 10  1  0
 14  1  2  0
 15  1  2  0
 16  7  2  0
 17 10  2  0
 18  6  1  0
 19 13  1  0
 20 18  2  0
 21 17  1  0
 22 12  1  0
 23 12  1  0
  9  8  2  0
  3  2  2  0
 21 19  2  0
M  END
> <COMPOUND_ID>
DNDI1417701

$$$$

  SciTegic04051205032D

 27 29  0  0  0  0            999 V2000
   12.7545   -8.3944    0.0000 N   0  0
   12.0385   -8.8031    0.0000 C   0  0
   14.2102   -7.5939    0.0000 O   0  0
   13.4605   -8.8368    0.0000 C   0  0
   12.7545   -7.5736    0.0000 C   0  0
   11.3461   -8.3707    0.0000 C   0  0
   12.0284   -9.6305    0.0000 O   0  0
   14.1866   -8.4146    0.0000 C   0  0
   13.4706   -7.1751    0.0000 C   0  0
    6.3881   -6.2193    0.0000 C   0  0
   11.3597   -7.5365    0.0000 C   0  0
   10.6099   -8.7591    0.0000 C   0  0
    7.1176   -5.8005    0.0000 C   0  0
    6.3813   -7.0569    0.0000 C   0  0
    8.4956   -7.4588    0.0000 O   0  0
    7.8134   -7.0434    0.0000 C   0  0
    9.9276   -7.5061    0.0000 C   0  0
    5.6856   -5.8072    0.0000 C   0  0
    9.2353   -7.0772    0.0000 C   0  0
    7.0872   -7.4453    0.0000 C   0  0
    7.8134   -6.2295    0.0000 C   0  0
   10.6605   -7.1211    0.0000 C   0  0
    9.9142   -8.3471    0.0000 C   0  0
   13.4807   -6.3476    0.0000 C   0  0
   14.9465   -8.8368    0.0000 C   0  0
    5.0000   -6.2295    0.0000 C   0  0
    5.6856   -5.0000    0.0000 C   0  0
  2  1  1  0
  3  8  1  0
  4  1  1  0
  5  1  1  0
  6  2  1  0
  7  2  2  0
  8  4  1  0
  9  5  1  0
 10 13  1  0
 11  6  1  0
 12  6  2  0
 13 21  2  0
 14 20  1  0
 15 19  1  0
 16 15  1  0
 17 23  2  0
 18 10  1  0
 19 17  1  0
 20 16  2  0
 21 16  1  0
 22 11  2  0
 23 12  1  0
 24  9  1  0
 25  8  1  0
 26 18  1  0
 27 18  1  0
  3  9  1  0
 17 22  1  0
 10 14  2  0
M  END
> <COMPOUND_ID>
DNDI1417702

$$$$

  SciTegic04051205032D

 26 28  0  0  0  0            999 V2000
    9.2953   -6.5880    0.0000 N   0  3
    9.7828   -5.9127    0.0000 C   0  0
    8.5185   -6.3443    0.0000 C   0  0
    9.2953   -5.2476    0.0000 S   0  0
    8.5185   -5.4913    0.0000 C   0  0
    7.8127   -6.7656    0.0000 C   0  0
   10.6154   -5.9127    0.0000 C   0  0
    7.1020   -6.3443    0.0000 C   0  0
    6.4114   -6.7708    0.0000 C   0  0
   11.0318   -6.6438    0.0000 C   0  0
   13.5145   -6.6438    0.0000 C   0  0
    7.8127   -5.0800    0.0000 C   0  0
   14.3471   -6.6438    0.0000 N   0  0
    6.4013   -7.5628    0.0000 O   0  0
    7.1020   -5.4913    0.0000 C   0  0
    9.5390   -7.3749    0.0000 C   0  0
   13.1033   -7.3496    0.0000 C   0  0
   13.1033   -5.9127    0.0000 C   0  0
   11.8543   -6.6184    0.0000 C   0  0
    5.7311   -6.3595    0.0000 O   0  0
   12.2756   -5.9127    0.0000 C   0  0
   12.2756   -7.3496    0.0000 C   0  0
   14.7584   -7.3496    0.0000 C   0  0
   14.7584   -5.9127    0.0000 C   0  0
    5.0000   -6.7504    0.0000 C   0  0
    8.9907   -7.9689    0.0000 C   0  0
  2  1  2  0
  3  1  1  0
  4  2  1  0
  5  3  2  0
  6  3  1  0
  7  2  1  0
  8  6  2  0
  9  8  1  0
 10  7  2  0
 11 17  2  0
 12  5  1  0
 13 11  1  0
 14  9  2  0
 15  8  1  0
 16  1  1  0
 17 22  1  0
 18 21  2  0
 19 10  1  0
 20  9  1  0
 21 19  1  0
 22 19  2  0
 23 13  1  0
 24 13  1  0
 25 20  1  0
 26 16  1  0
  4  5  1  0
 12 15  2  0
 11 18  1  0
M  CHG  1   1   1
M  END
> <COMPOUND_ID>
DNDI1417703

$$$$

  SciTegic04051205032D

 26 29  0  0  0  0            999 V2000
    7.8127   -7.1441    0.0000 C   0  0
    7.2893   -7.8059    0.0000 N   0  0
    8.6467   -7.1441    0.0000 C   0  0
    7.2893   -6.4283    0.0000 O   0  0
    6.5059   -7.5797    0.0000 C   0  0
   10.9968   -5.7259    0.0000 C   0  0
    6.5059   -6.7625    0.0000 C   0  0
   10.1864   -5.7259    0.0000 N   0  0
   11.4087   -6.4451    0.0000 C   0  0
    8.9877   -7.8566    0.0000 C   0  0
    8.9877   -6.4283    0.0000 C   0  0
    5.7462   -7.9848    0.0000 N   0  0
    9.7879   -6.4283    0.0000 C   0  0
   11.4222   -5.0000    0.0000 O   0  0
   12.2022   -6.4451    0.0000 C   0  0
    9.7610   -7.8566    0.0000 C   0  0
   12.6243   -7.1441    0.0000 C   0  0
   10.2033   -7.1441    0.0000 C   0  0
    8.5454   -8.5521    0.0000 Cl  0  0
   13.4448   -7.1171    0.0000 F   0  0
   10.9968   -7.1576    0.0000 C   0  0
   11.4087   -7.8633    0.0000 C   0  0
    5.7293   -6.3641    0.0000 C   0  0
    5.0000   -7.6033    0.0000 C   0  0
   12.2326   -7.8566    0.0000 C   0  0
    5.0000   -6.7828    0.0000 C   0  0
  2  1  2  0
  3  1  1  0
  4  1  1  0
  5  2  1  0
  6  8  1  0
  7  4  1  0
  8 13  1  0
  9  6  1  0
 10  3  1  0
 11  3  2  0
 12  5  1  0
 13 11  1  0
 14  6  2  0
 15  9  1  0
 16 10  2  0
 17 15  2  0
 18 13  2  0
 19 10  1  0
 20 17  1  0
 21  9  2  0
 22 21  1  0
 23  7  1  0
 24 12  2  0
 25 22  2  0
 26 23  2  0
  5  7  2  0
 24 26  1  0
 16 18  1  0
 25 17  1  0
M  END
> <COMPOUND_ID>
DNDI1417704

$$$$

  SciTegic04051205032D

 26 29  0  0  0  0            999 V2000
    7.7048   -8.7409    0.0000 C   0  0
    7.2221   -9.4068    0.0000 N   0  0
    7.2096   -8.0710    0.0000 N   0  0
    6.4356   -9.1571    0.0000 C   0  0
    6.4314   -8.3332    0.0000 C   0  0
    7.4801  -10.1932    0.0000 C   0  0
    7.4593   -7.2928    0.0000 C   0  0
    8.5204   -6.3316    0.0000 C   0  0
    6.9350  -10.8049    0.0000 C   0  0
    8.2665   -7.1098    0.0000 C   0  0
    8.5287   -8.7326    0.0000 N   0  0
    9.3027   -6.0736    0.0000 O   0  0
    8.0293   -5.6699    0.0000 C   0  0
    7.1929  -11.5872    0.0000 C   0  0
    9.2944   -5.2497    0.0000 C   0  0
    8.5079   -5.0000    0.0000 C   0  0
    8.8200   -7.7215    0.0000 O   0  0
    8.0044  -11.7495    0.0000 Cl  0  0
    5.7116   -9.5773    0.0000 C   0  0
    5.7116   -7.9212    0.0000 C   0  0
    6.1235  -10.6384    0.0000 C   0  0
    6.6478  -12.2031    0.0000 C   0  0
    5.0000   -8.3414    0.0000 C   0  0
    5.0000   -9.1654    0.0000 C   0  0
    5.5742  -11.2543    0.0000 C   0  0
    5.8364  -12.0366    0.0000 C   0  0
  2  1  1  0
  3  1  1  0
  4  2  1  0
  5  3  1  0
  6  2  1  0
  7  3  1  0
  8 10  1  0
  9  6  1  0
 10  7  1  0
 11  1  2  0
 12  8  1  0
 13  8  2  0
 14  9  1  0
 15 12  1  0
 16 13  1  0
 17 10  1  0
 18 14  1  0
 19  4  2  0
 20  5  2  0
 21  9  2  0
 22 14  2  0
 23 20  1  0
 24 19  1  0
 25 21  1  0
 26 25  2  0
  5  4  1  0
 23 24  2  0
 15 16  2  0
 22 26  1  0
M  END
> <COMPOUND_ID>
DNDI1417705

$$$$

  SciTegic04051205032D

 22 23  0  0  0  0            999 V2000
    8.0299   -6.6013    0.0000 N   0  0
    6.6577   -6.2858    0.0000 N   0  0
    7.4358   -6.0544    0.0000 C   0  0
    7.0678   -7.6580    0.0000 N   0  0
    7.8564   -7.4267    0.0000 C   0  0
    6.4658   -7.0771    0.0000 C   0  0
    8.8159   -6.3042    0.0000 O   0  0
    7.6093   -5.2475    0.0000 N   0  0
    5.6798   -7.2979    0.0000 N   0  0
   11.4710   -6.9246    0.0000 C   0  0
    9.3285   -6.9115    0.0000 C   0  0
   12.0441   -7.5055    0.0000 C   0  0
    7.9642   -8.2495    0.0000 C   0  0
    8.6897   -7.4582    0.0000 C   0  0
   10.6850   -7.1901    0.0000 C   0  0
   12.8537   -7.3084    0.0000 C   0  0
   13.4215   -7.9104    0.0000 Br  0  0
   10.1067   -6.6354    0.0000 C   0  0
   12.5120   -5.9125    0.0000 C   0  0
   11.7076   -6.1175    0.0000 C   0  0
   13.0930   -6.5119    0.0000 C   0  0
   10.2802   -5.8257    0.0000 C   0  0
  2  3  2  0
  3  1  1  0
  4  5  1  0
  5  1  1  0
  6  2  1  0
  7  1  1  0
  8  3  1  0
  9  6  1  0
 10 15  1  0
 11  7  1  0
 12 10  1  0
 13  5  1  0
 14  5  1  0
 15 18  1  0
 16 12  2  0
 17 16  1  0
 18 11  1  0
 19 20  1  0
 20 10  2  0
 21 19  2  0
 22 18  1  0
  6  4  2  0
 21 16  1  0
M  END
> <COMPOUND_ID>
DNDI1417706

$$$$

  SciTegic04051205032D

 27 30  0  0  0  0            999 V2000
    8.2284  -10.6351    0.0000 C   0  0
    7.8950   -9.8753    0.0000 C   0  0
    9.0502  -10.5458    0.0000 C   0  0
    8.5069   -9.3287    0.0000 N   0  0
    9.2186   -9.7412    0.0000 N   0  0
    9.5384  -11.2162    0.0000 C   0  0
    7.0801   -9.7068    0.0000 C   0  0
    7.8950  -11.3916    0.0000 C   0  0
    8.3798  -12.0551    0.0000 O   0  0
    9.1980  -11.9725    0.0000 C   0  0
    6.5335  -10.3188    0.0000 O   0  0
    7.4205   -6.1139    0.0000 N   0  0
    6.8291   -8.9229    0.0000 N   0  0
    6.6160   -5.9489    0.0000 C   0  0
   10.3532  -11.1302    0.0000 C   0  0
    7.1282   -7.5202    0.0000 C   0  0
    7.6784   -6.9081    0.0000 C   0  0
    7.3793   -8.3041    0.0000 C   0  0
    7.9809   -5.5157    0.0000 C   0  0
    9.6828  -12.6396    0.0000 C   0  0
    6.0659   -6.5609    0.0000 C   0  0
    6.3581   -5.1719    0.0000 C   0  0
   10.8414  -11.7972    0.0000 C   0  0
   10.5114  -12.5502    0.0000 C   0  0
    5.5536   -5.0000    0.0000 C   0  0
    5.2510   -6.3959    0.0000 C   0  0
    5.0000   -5.5982    0.0000 C   0  0
  2  1  1  0
  3  1  2  0
  4  2  2  0
  5  3  1  0
  6  3  1  0
  7  2  1  0
  8  1  1  0
  9  8  1  0
 10  9  1  0
 11  7  2  0
 12 17  1  0
 13  7  1  0
 14 12  1  0
 15  6  1  0
 16 18  1  0
 17 16  1  0
 18 13  1  0
 19 12  1  0
 20 10  1  0
 21 14  1  0
 22 14  1  0
 23 15  2  0
 24 20  2  0
 25 22  1  0
 26 21  1  0
 27 25  1  0
  4  5  1  0
 10  6  2  0
 23 24  1  0
 26 27  1  0
M  END
> <COMPOUND_ID>
DNDI1417707

$$$$

  SciTegic04051205032D

 26 29  0  0  0  0            999 V2000
    7.8980   -7.1632    0.0000 N   0  0
    8.3700   -6.4777    0.0000 C   0  0
    7.8775   -5.8620    0.0000 N   0  3
    7.1180   -6.9251    0.0000 C   0  0
    8.2633   -7.8979    0.0000 N   0  0
    7.1180   -6.1042    0.0000 C   0  0
    9.1786   -6.5516    0.0000 S   0  0
    9.0678   -7.9677    0.0000 C   0  0
    6.4203   -7.3397    0.0000 C   0  0
    6.4203   -5.6896    0.0000 C   0  0
    9.4044   -8.7189    0.0000 C   0  0
    5.7102   -6.9251    0.0000 C   0  0
    5.7102   -6.1042    0.0000 C   0  0
    9.5439   -7.2986    0.0000 C   0  0
   10.2335   -8.7845    0.0000 C   0  0
   10.5783   -9.5440    0.0000 C   0  0
   10.0940  -10.2212    0.0000 C   0  0
    8.9324   -9.3879    0.0000 C   0  0
    8.3290   -5.0000    0.0000 C   0  0
    9.2772  -10.1432    0.0000 C   0  0
   11.3952   -9.6096    0.0000 O   0  0
   10.4305  -10.9683    0.0000 O   0  0
    5.0000   -5.7019    0.0000 C   0  0
    5.0000   -7.3233    0.0000 C   0  0
   11.7400  -10.3607    0.0000 C   0  0
    9.9463  -11.6414    0.0000 C   0  0
  2  1  1  0
  3  2  2  0
  4  1  1  0
  5  1  1  0
  6  4  2  0
  7  2  1  0
  8  5  2  0
  9  4  1  0
 10  6  1  0
 11  8  1  0
 12  9  2  0
 13 12  1  0
 14  8  1  0
 15 11  1  0
 16 15  2  0
 17 20  2  0
 18 11  2  0
 19  3  1  0
 20 18  1  0
 21 16  1  0
 22 17  1  0
 23 13  1  0
 24 12  1  0
 25 21  1  0
 26 22  1  0
  3  6  1  0
 14  7  1  0
 13 10  2  0
 17 16  1  0
M  CHG  1   3   1
M  END
> <COMPOUND_ID>
DNDI1417708

$$$$

  SciTegic04051205032D

 23 26  0  0  0  0            999 V2000
    7.8643   -7.8742    0.0000 N   0  0
    7.1253   -7.4734    0.0000 C   0  0
    7.8643   -8.7118    0.0000 C   0  0
    6.4289   -7.8742    0.0000 C   0  0
    7.1253   -9.1093    0.0000 N   0  0
    7.1253   -6.6522    0.0000 N   0  0
    6.4289   -8.7118    0.0000 C   0  0
    8.5476   -9.1355    0.0000 C   0  0
    7.1253   -5.0000    0.0000 N   0  0
    8.5476   -9.9568    0.0000 C   0  0
    9.2834   -8.7249    0.0000 C   0  0
    9.9830   -9.9732    0.0000 C   0  0
    9.9830   -9.1487    0.0000 C   0  0
    9.2538  -10.3870    0.0000 C   0  0
    5.7161   -7.4734    0.0000 C   0  0
   10.6959  -10.4166    0.0000 Br  0  0
    6.4157   -6.2416    0.0000 C   0  0
    7.8381   -6.2285    0.0000 C   0  0
    5.7161   -9.1093    0.0000 C   0  0
    6.4157   -5.4139    0.0000 C   0  0
    7.8381   -5.4040    0.0000 C   0  0
    5.0000   -7.8742    0.0000 C   0  0
    5.0000   -8.7118    0.0000 C   0  0
  2  1  2  0
  3  1  1  0
  4  2  1  0
  5  3  2  0
  6  2  1  0
  7  5  1  0
  8  3  1  0
  9 21  1  0
 10  8  2  0
 11  8  1  0
 12 13  1  0
 13 11  2  0
 14 10  1  0
 15  4  1  0
 16 12  1  0
 17  6  1  0
 18  6  1  0
 19  7  1  0
 20 17  1  0
 21 18  1  0
 22 15  2  0
 23 19  2  0
  4  7  2  0
 14 12  2  0
 20  9  1  0
 22 23  1  0
M  END
> <COMPOUND_ID>
DNDI1417709

$$$$

  SciTegic04051205032D

 22 23  0  0  0  0            999 V2000
    7.1391   -7.0537    0.0000 C   0  0
    7.1391   -6.2291    0.0000 C   0  0
    6.4282   -5.8246    0.0000 C   0  0
   12.8707   -6.1911    0.0000 N   0  0
    6.4282   -7.4676    0.0000 C   0  0
    5.7172   -6.2291    0.0000 C   0  0
   14.3085   -7.0095    0.0000 N   0  0
    5.7172   -7.0537    0.0000 C   0  0
    7.8532   -7.4803    0.0000 Br  0  0
    7.8532   -5.8120    0.0000 O   0  0
   12.1472   -5.7773    0.0000 C   0  0
   13.5880   -5.7773    0.0000 C   0  0
   12.8707   -7.0126    0.0000 C   0  0
    6.4282   -5.0000    0.0000 C   0  0
   14.2990   -6.1754    0.0000 C   0  0
   13.5880   -7.4202    0.0000 C   0  0
    5.0000   -7.4676    0.0000 C   0  0
    8.5672   -6.2164    0.0000 C   0  0
   11.4299   -6.1911    0.0000 C   0  0
    9.2782   -5.7993    0.0000 C   0  0
   10.0018   -6.2038    0.0000 C   0  0
   10.7159   -5.7898    0.0000 C   0  0
  2  1  2  0
  3  2  1  0
  4 11  1  0
  5  1  1  0
  6  8  1  0
  7 15  1  0
  8  5  2  0
  9  1  1  0
 10  2  1  0
 11 19  1  0
 12  4  1  0
 13  4  1  0
 14  3  1  0
 15 12  1  0
 16 13  1  0
 17  8  1  0
 18 10  1  0
 19 22  1  0
 20 18  1  0
 21 20  1  0
 22 21  1  0
  6  3  2  0
  7 16  1  0
M  END
> <COMPOUND_ID>
DNDI1417710

$$$$

  SciTegic04051205032D

 27 30  0  0  0  0            999 V2000
    7.0837   -6.3719    0.0000 C   0  0
    7.0837   -7.1779    0.0000 C   0  0
    8.4829   -6.3719    0.0000 C   0  0
    6.3841   -5.9673    0.0000 C   0  0
    8.4829   -7.1779    0.0000 C   0  0
    7.7863   -7.5825    0.0000 O   0  0
    5.6966   -6.3719    0.0000 C   0  0
    6.3871   -7.5765    0.0000 C   0  0
    5.6966   -7.1779    0.0000 C   0  0
    9.0639   -5.8031    0.0000 C   0  0
    9.1886   -7.5825    0.0000 C   0  0
    9.1794   -8.3856    0.0000 N   0  0
    6.3841   -5.1643    0.0000 O   0  0
    5.0000   -5.9673    0.0000 O   0  0
    9.0548   -5.0000    0.0000 O   0  0
    9.1794   -9.9977    0.0000 O   0  0
    9.8304   -6.0069    0.0000 O   0  0
    6.3871   -8.3764    0.0000 C   0  0
    5.0000   -7.5765    0.0000 C   0  0
    8.4829   -8.7871    0.0000 C   0  0
    9.8821   -8.7871    0.0000 C   0  0
    8.4829   -9.5871    0.0000 C   0  0
    9.8821   -9.5992    0.0000 C   0  0
   10.0494   -6.7917    0.0000 C   0  0
    5.0000   -8.3856    0.0000 C   0  0
    5.7088   -8.7871    0.0000 C   0  0
   10.8220   -7.0016    0.0000 C   0  0
  2  1  2  0
  3  1  1  0
  4  1  1  0
  5  3  2  0
  6  2  1  0
  7  4  1  0
  8  2  1  0
  9  7  1  0
 10  3  1  0
 11  5  1  0
 12 11  1  0
 13  4  2  0
 14  7  2  0
 15 10  2  0
 16 22  1  0
 17 10  1  0
 18  8  1  0
 19  9  1  0
 20 12  1  0
 21 12  1  0
 22 20  1  0
 23 21  1  0
 24 17  1  0
 25 19  2  0
 26 18  2  0
 27 24  1  0
  5  6  1  0
  9  8  2  0
 25 26  1  0
 16 23  1  0
M  END
> <COMPOUND_ID>
DNDI1417711

$$$$

  SciTegic04051205032D

 28 31  0  0  0  0            999 V2000
    6.7698   -6.6565    0.0000 C   0  0
    7.8619   -7.4365    0.0000 C   0  0
    7.1891   -7.9241    0.0000 N   0  0
    6.5163   -7.4365    0.0000 C   0  0
    7.5986   -6.6565    0.0000 C   0  0
    8.6419   -7.6998    0.0000 C   0  0
    6.2871   -5.9837    0.0000 C   0  0
    9.2563   -7.1391    0.0000 C   0  0
    7.1891   -8.7480    0.0000 C   0  0
    8.0910   -5.9837    0.0000 O   0  0
   10.0412   -7.4024    0.0000 C   0  0
    6.6284   -5.2475    0.0000 O   0  0
   10.6555   -6.8417    0.0000 C   0  0
    5.7362   -7.6998    0.0000 C   0  0
    5.4729   -6.0714    0.0000 O   0  0
    9.0807   -6.3347    0.0000 C   0  0
    9.6999   -5.7887    0.0000 C   0  0
   10.2167   -8.2069    0.0000 C   0  0
   10.4800   -6.0422    0.0000 C   0  0
    7.9058   -9.1673    0.0000 C   0  0
    6.4724   -9.1673    0.0000 C   0  0
   11.4356   -7.0953    0.0000 C   0  0
    5.0000   -5.4003    0.0000 C   0  0
   10.9968   -8.4604    0.0000 C   0  0
    6.4724   -9.9913    0.0000 C   0  0
    7.9058   -9.9913    0.0000 C   0  0
   11.6160   -7.9095    0.0000 C   0  0
    7.1891  -10.3927    0.0000 C   0  0
  2  5  1  0
  3  4  1  0
  4  1  2  0
  5  1  1  0
  6  2  2  0
  7  1  1  0
  8  6  1  0
  9  3  1  0
 10  5  2  0
 11  8  1  0
 12  7  2  0
 13 11  1  0
 14  4  1  0
 15  7  1  0
 16  8  2  0
 17 16  1  0
 18 11  2  0
 19 17  2  0
 20  9  2  0
 21  9  1  0
 22 13  2  0
 23 15  1  0
 24 18  1  0
 25 21  2  0
 26 20  1  0
 27 24  2  0
 28 25  1  0
  2  3  1  0
 26 28  2  0
 19 13  1  0
 22 27  1  0
M  END
> <COMPOUND_ID>
DNDI1417712

$$$$

  SciTegic04051205032D

 28 31  0  0  0  0            999 V2000
    7.8576   -9.9720    0.0000 C   0  0
    5.7103   -7.0648    0.0000 C   0  0
    8.5679   -9.5755    0.0000 C   0  0
    7.8576  -10.8254    0.0000 C   0  0
    7.1418   -9.5755    0.0000 C   0  0
    8.5679   -8.7331    0.0000 N   0  0
    7.1418  -11.2218    0.0000 C   0  0
    6.4315   -7.4943    0.0000 C   0  0
    8.5679  -11.2218    0.0000 N   0  0
    6.4315   -9.9720    0.0000 C   0  0
    5.7433   -6.2498    0.0000 N   0  0
    6.4315  -10.8254    0.0000 C   0  0
    5.0000   -7.4612    0.0000 O   0  0
    6.4315   -8.3146    0.0000 C   0  0
    7.1418   -7.0648    0.0000 C   0  0
    7.8576   -8.3146    0.0000 C   0  0
    9.2782   -9.9720    0.0000 C   0  0
    9.2782  -10.8254    0.0000 C   0  0
    7.1418   -8.7331    0.0000 C   0  0
    7.8576   -7.4943    0.0000 C   0  0
    5.0275   -5.8259    0.0000 C   0  0
    6.4536   -5.8534    0.0000 C   0  0
    5.7103   -9.5755    0.0000 C   0  0
    5.7103  -11.2218    0.0000 C   0  0
    5.0496   -5.0000    0.0000 C   0  0
    7.1418   -6.2719    0.0000 C   0  0
    5.0000  -10.8254    0.0000 C   0  0
    5.0000   -9.9720    0.0000 C   0  0
  2  8  1  0
  3  1  2  0
  4  1  1  0
  5  1  1  0
  6  3  1  0
  7  4  1  0
  8 15  2  0
  9  4  2  0
 10  5  2  0
 11  2  1  0
 12 10  1  0
 13  2  2  0
 14 19  2  0
 15 20  1  0
 16  6  1  0
 17  3  1  0
 18  9  1  0
 19 16  1  0
 20 16  2  0
 21 11  1  0
 22 11  1  0
 23 10  1  0
 24 12  1  0
 25 21  1  0
 26 22  1  0
 27 28  1  0
 28 23  2  0
  7 12  2  0
 17 18  2  0
 24 27  2  0
  8 14  1  0
M  END
> <COMPOUND_ID>
DNDI1417713

$$$$

  SciTegic04051205032D

 28 31  0  0  0  0            999 V2000
    6.6328   -7.8988    0.0000 N   0  3
    7.4316   -7.6526    0.0000 C   0  0
    6.1656   -7.2306    0.0000 C   0  0
    6.6328   -6.5876    0.0000 C   0  0
    7.4316   -6.8538    0.0000 C   0  0
   11.0186   -8.0746    0.0000 N   0  0
   10.2951   -7.6526    0.0000 C   0  0
   11.7118   -7.6526    0.0000 C   0  0
   10.2951   -6.8287    0.0000 C   0  0
   11.0186   -6.4318    0.0000 C   0  0
    5.3617   -7.1754    0.0000 C   0  0
    8.1349   -8.0746    0.0000 C   0  0
   11.7118   -6.8287    0.0000 C   0  0
    6.3012   -5.8491    0.0000 C   0  0
    8.8583   -7.6526    0.0000 C   0  0
    9.5717   -8.0746    0.0000 C   0  0
    6.3615   -8.7227    0.0000 C   0  0
   11.0186   -8.8935    0.0000 C   0  0
    5.0000   -6.4318    0.0000 C   0  0
    5.4823   -5.7687    0.0000 C   0  0
    7.3411   -6.0098    0.0000 C   0  0
    8.2554   -6.7534    0.0000 C   0  0
   12.4302   -8.0746    0.0000 C   0  0
   12.4302   -6.4318    0.0000 C   0  0
    5.1407   -5.0000    0.0000 C   0  0
   11.7118   -9.3155    0.0000 C   0  0
   13.1536   -7.6526    0.0000 C   0  0
   13.1536   -6.8287    0.0000 C   0  0
  2  1  2  0
  3  1  1  0
  4  3  2  0
  5  2  1  0
  6  7  1  0
  7 16  2  0
  8  6  1  0
  9  7  1  0
 10  9  2  0
 11  3  1  0
 12  2  1  0
 13 10  1  0
 14  4  1  0
 15 12  2  0
 16 15  1  0
 17  1  1  0
 18  6  1  0
 19 11  2  0
 20 19  1  0
 21  5  1  0
 22  5  1  0
 23  8  2  0
 24 13  2  0
 25 20  1  0
 26 18  1  0
 27 23  1  0
 28 24  1  0
  4  5  1  0
 14 20  2  0
  8 13  1  0
 27 28  2  0
M  CHG  1   1   1
M  END
> <COMPOUND_ID>
DNDI1417714

$$$$

  SciTegic04051205032D

 28 31  0  0  0  0            999 V2000
    9.3055   -7.5002    0.0000 N   0  0
    8.5928   -7.1083    0.0000 C   0  0
    5.7126   -6.2175    0.0000 N   0  3
   10.0063   -7.1083    0.0000 C   0  0
    7.8506   -7.5002    0.0000 C   0  0
   10.0063   -6.2828    0.0000 C   0  0
    7.1379   -7.0727    0.0000 C   0  0
    5.7126   -7.0489    0.0000 C   0  0
    8.5928   -6.2828    0.0000 C   0  0
    6.4253   -7.4764    0.0000 C   0  0
    9.3055   -5.8434    0.0000 C   0  0
   10.7308   -7.5002    0.0000 C   0  0
    6.4253   -5.8434    0.0000 C   0  0
   10.7308   -5.8434    0.0000 C   0  0
    7.1379   -6.2531    0.0000 C   0  0
    9.3055   -8.3316    0.0000 C   0  0
   11.4434   -7.1083    0.0000 C   0  0
    5.0296   -5.7899    0.0000 C   0  0
   11.4434   -6.2828    0.0000 C   0  0
    5.0000   -7.4468    0.0000 C   0  0
    6.4253   -8.3020    0.0000 C   0  0
   12.1560   -5.8255    0.0000 C   0  0
   10.0063   -8.7592    0.0000 C   0  0
    5.0534   -5.0000    0.0000 C   0  0
   10.0063   -9.5847    0.0000 C   0  0
    5.7126   -8.7296    0.0000 C   0  0
    5.0000   -8.2782    0.0000 C   0  0
   10.7308   -9.9885    0.0000 C   0  0
  2  1  1  0
  3 13  1  0
  4  1  1  0
  5  2  2  0
  6  4  1  0
  7  5  1  0
  8 10  1  0
  9  2  1  0
 10  7  2  0
 11  6  1  0
 12  4  2  0
 13 15  2  0
 14  6  2  0
 15  7  1  0
 16  1  1  0
 17 12  1  0
 18  3  1  0
 19 17  2  0
 20  8  1  0
 21 10  1  0
 22 19  1  0
 23 16  1  0
 24 18  1  0
 25 23  1  0
 26 21  2  0
 27 26  1  0
 28 25  1  0
  9 11  2  0
 19 14  1  0
  8  3  2  0
 27 20  2  0
M  CHG  1   3   1
M  END
> <COMPOUND_ID>
DNDI1417715

$$$$

  SciTegic04051205032D

 28 31  0  0  0  0            999 V2000
    7.1368   -7.8833    0.0000 N   0  3
    9.3249   -7.4730    0.0000 C   0  0
    9.3249   -6.6524    0.0000 C   0  0
    7.8490   -7.4730    0.0000 C   0  0
   10.0371   -6.2308    0.0000 C   0  0
    8.5899   -7.9061    0.0000 C   0  0
   10.7438   -6.6524    0.0000 N   0  0
    6.4302   -7.4730    0.0000 C   0  0
   10.0371   -7.8833    0.0000 C   0  0
   10.7438   -7.4730    0.0000 C   0  0
   10.0371   -5.4216    0.0000 C   0  0
    8.6183   -6.2308    0.0000 C   0  0
    7.8490   -6.6524    0.0000 C   0  0
    6.4302   -6.6524    0.0000 C   0  0
    7.1368   -6.2308    0.0000 C   0  0
    7.1368   -8.7266    0.0000 C   0  0
    9.3249   -5.0000    0.0000 C   0  0
    8.6183   -5.4216    0.0000 C   0  0
   11.4617   -6.2308    0.0000 C   0  0
    5.7180   -7.8833    0.0000 C   0  0
    5.7180   -6.2308    0.0000 C   0  0
    7.9061   -5.0000    0.0000 C   0  0
    7.8490   -9.1369    0.0000 C   0  0
   12.1569   -6.6524    0.0000 C   0  0
    7.8490   -9.9574    0.0000 C   0  0
    5.0000   -7.4730    0.0000 C   0  0
    7.1368  -10.3677    0.0000 C   0  0
    5.0000   -6.6524    0.0000 C   0  0
  2  6  2  0
  3  2  1  0
  4  1  1  0
  5  3  2  0
  6  4  1  0
  7 10  1  0
  8  1  2  0
  9  2  1  0
 10  9  2  0
 11  5  1  0
 12  3  1  0
 13  4  2  0
 14  8  1  0
 15 14  2  0
 16  1  1  0
 17 18  1  0
 18 12  2  0
 19  7  1  0
 20  8  1  0
 21 14  1  0
 22 18  1  0
 23 16  1  0
 24 19  1  0
 25 23  1  0
 26 20  2  0
 27 25  1  0
 28 26  1  0
 15 13  1  0
 21 28  2  0
  7  5  1  0
 11 17  2  0
M  CHG  1   1   1
M  END
> <COMPOUND_ID>
DNDI1417716

$$$$

  SciTegic04051205032D

 21 22  0  0  0  0            999 V2000
   10.4407   -7.3826    0.0000 C   0  0
    7.0199   -6.6739    0.0000 C   0  0
    9.7775   -7.8051    0.0000 C   0  0
    5.7707   -7.4008    0.0000 C   0  0
    6.6020   -7.3826    0.0000 C   0  0
    5.3618   -6.6921    0.0000 C   0  0
    8.2738   -7.3826    0.0000 N   0  0
    6.5884   -5.9516    0.0000 C   0  0
    5.7661   -5.9652    0.0000 C   0  0
   11.1948   -7.7279    0.0000 C   0  0
    9.0915   -7.3826    0.0000 N   0  0
    7.8422   -6.6739    0.0000 C   0  0
    9.8001   -8.6546    0.0000 O   0  0
    5.3618   -8.0958    0.0000 Br  0  0
    7.0199   -8.0913    0.0000 O   0  0
    5.3300   -5.2475    0.0000 Cl  0  0
   11.2493   -8.5456    0.0000 O   0  0
   10.4180   -6.5649    0.0000 C   0  0
   11.8899   -7.3054    0.0000 C   0  0
   11.1131   -6.0924    0.0000 C   0  0
   11.8717   -6.4740    0.0000 C   0  0
  2 12  1  0
  3  1  1  0
  4  5  2  0
  5  2  1  0
  6  9  2  0
  7 11  1  0
  8  2  2  0
  9  8  1  0
 10  1  2  0
 11  3  1  0
 12  7  2  0
 13  3  2  0
 14  4  1  0
 15  5  1  0
 16  9  1  0
 17 10  1  0
 18  1  1  0
 19 10  1  0
 20 18  2  0
 21 20  1  0
 19 21  2  0
  6  4  1  0
M  END
> <COMPOUND_ID>
DNDI1417717

$$$$

  SciTegic04051205032D

 24 25  0  0  0  0            999 V2000
    7.4299   -6.3832    0.0000 C   0  0
    8.0156   -6.9565    0.0000 O   0  0
    9.1828   -8.1278    0.0000 C   0  0
    8.3853   -8.3397    0.0000 C   0  0
    9.7685   -8.7135    0.0000 C   0  0
    6.6449   -6.5951    0.0000 C   0  0
    7.8038   -7.7540    0.0000 C   0  0
    7.6501   -5.5815    0.0000 C   0  0
    8.1734   -9.1372    0.0000 C   0  0
    9.5484   -9.5110    0.0000 C   0  0
    9.3988   -7.3303    0.0000 Cl  0  0
    8.7508   -9.7229    0.0000 C   0  0
    5.7145   -7.8038    0.0000 N   0  0
   10.1340  -10.0967    0.0000 Cl  0  0
    8.4476   -5.3697    0.0000 O   0  0
    6.4330   -7.3926    0.0000 C   0  0
    6.0550   -6.0094    0.0000 C   0  0
    5.0000   -9.8599    0.0000 O   0  0
    6.2710   -5.2119    0.0000 C   0  0
    7.0686   -5.0000    0.0000 C   0  0
    5.7145   -8.6263    0.0000 C   0  0
    5.0000   -9.0375    0.0000 C   0  0
    9.0250   -5.9554    0.0000 C   0  0
    9.8225   -5.7353    0.0000 C   0  0
  2  1  1  0
  3  4  2  0
  4  7  1  0
  5  3  1  0
  6  1  1  0
  7  2  1  0
  8  1  2  0
  9  4  1  0
 10 12  1  0
 11  3  1  0
 12  9  2  0
 13 16  1  0
 14 10  1  0
 15  8  1  0
 16  6  1  0
 17  6  2  0
 18 22  1  0
 19 20  2  0
 20  8  1  0
 21 13  1  0
 22 21  1  0
 23 15  1  0
 24 23  1  0
 19 17  1  0
 10  5  2  0
M  END
> <COMPOUND_ID>
DNDI1417718

$$$$

  SciTegic04051205032D

 28 31  0  0  0  0            999 V2000
    7.0604  -10.9680    0.0000 C   0  0
    7.7472  -11.3727    0.0000 N   0  0
    7.7472  -12.2458    0.0000 C   0  0
    7.0604  -12.6664    0.0000 N   0  0
    6.3736  -11.3887    0.0000 C   0  0
    6.3736  -12.2458    0.0000 C   0  0
    8.4445  -12.6664    0.0000 C   0  0
    7.0604  -10.1215    0.0000 N   0  0
    7.0390   -6.7249    0.0000 C   0  0
    7.0444   -7.5820    0.0000 C   0  0
    6.3363   -6.3043    0.0000 O   0  0
    9.8075  -12.6505    0.0000 N   0  0
    7.0444   -9.2804    0.0000 C   0  0
    7.7418   -7.9867    0.0000 C   0  0
    6.3416   -8.0027    0.0000 C   0  0
    9.1207  -12.2192    0.0000 C   0  0
    7.6992   -6.2883    0.0000 O   0  0
    6.3416   -8.8598    0.0000 C   0  0
    7.7418   -8.8332    0.0000 C   0  0
    5.6974  -10.9680    0.0000 C   0  0
    8.4445  -13.5235    0.0000 C   0  0
    5.6974  -12.6770    0.0000 C   0  0
    9.8075  -13.5076    0.0000 C   0  0
    7.6992   -5.4312    0.0000 C   0  0
    9.1313  -13.9282    0.0000 C   0  0
    5.0000  -11.3887    0.0000 C   0  0
    8.3807   -5.0000    0.0000 C   0  0
    5.0000  -12.2512    0.0000 C   0  0
  2  1  2  0
  3  2  1  0
  4  6  1  0
  5  1  1  0
  6  5  1  0
  7  3  1  0
  8  1  1  0
  9 10  1  0
 10 14  1  0
 11  9  2  0
 12 16  2  0
 13  8  1  0
 14 19  2  0
 15 18  1  0
 16  7  1  0
 17  9  1  0
 18 13  2  0
 19 13  1  0
 20  5  2  0
 21  7  2  0
 22  6  2  0
 23 25  2  0
 24 17  1  0
 25 21  1  0
 26 20  1  0
 27 24  1  0
 28 26  2  0
  3  4  2  0
 15 10  2  0
 28 22  1  0
 12 23  1  0
M  END
> <COMPOUND_ID>
DNDI1417719

$$$$

  SciTegic04051205032D

 28 31  0  0  0  0            999 V2000
    8.5763   -9.1231    0.0000 C   0  0
    9.3397   -8.7930    0.0000 N   0  0
    8.6657   -9.9381    0.0000 N   0  0
    7.8748   -8.7105    0.0000 N   0  0
    7.1595   -9.1231    0.0000 C   0  0
    6.4443   -8.7105    0.0000 C   0  0
    9.4807  -10.1135    0.0000 C   0  0
    9.8762   -9.3982    0.0000 C   0  0
    7.1595   -6.6472    0.0000 C   0  0
    7.1595   -7.4725    0.0000 N   0  0
    6.4443   -7.8817    0.0000 C   0  0
    7.1458   -9.9484    0.0000 O   0  0
    6.4443   -6.2311    0.0000 O   0  0
    7.8748   -6.2380    0.0000 C   0  0
    8.0502  -10.4849    0.0000 C   0  0
    5.7152   -9.1128    0.0000 C   0  0
    9.8762  -10.8288    0.0000 C   0  0
   10.7015   -9.3982    0.0000 C   0  0
    5.7152   -7.4725    0.0000 C   0  0
    8.5901   -6.6575    0.0000 C   0  0
    7.8748   -5.4127    0.0000 C   0  0
    5.0000   -8.7105    0.0000 C   0  0
   10.7015  -10.8288    0.0000 C   0  0
   11.1176  -10.1135    0.0000 C   0  0
    5.0000   -7.8817    0.0000 C   0  0
    8.5901   -5.0000    0.0000 C   0  0
    9.3019   -6.2380    0.0000 C   0  0
    9.3019   -5.4127    0.0000 C   0  0
  2  1  2  0
  3  1  1  0
  4  1  1  0
  5  4  1  0
  6  5  1  0
  7  3  1  0
  8  2  1  0
  9 10  1  0
 10 11  1  0
 11  6  2  0
 12  5  2  0
 13  9  2  0
 14  9  1  0
 15  3  1  0
 16  6  1  0
 17  7  1  0
 18  8  1  0
 19 11  1  0
 20 14  1  0
 21 14  2  0
 22 16  2  0
 23 17  2  0
 24 18  2  0
 25 22  1  0
 26 21  1  0
 27 20  2  0
 28 26  2  0
  7  8  2  0
 23 24  1  0
 19 25  2  0
 27 28  1  0
M  END
> <COMPOUND_ID>
DNDI1417720

$$$$

  SciTegic04051205032D

 28 31  0  0  0  0            999 V2000
    7.8590   -8.0695    0.0000 C   0  0
    7.1392   -8.5008    0.0000 O   0  0
    7.8590   -7.2478    0.0000 C   0  0
    7.1392   -6.8369    0.0000 C   0  0
    6.4193   -8.0695    0.0000 C   0  0
    8.5177   -8.5721    0.0000 C   0  0
    8.4498   -7.4991    0.0000 C   0  0
    6.4193   -7.2478    0.0000 C   0  0
    9.8488   -9.5432    0.0000 C   0  0
    9.6349   -6.3683    0.0000 C   0  0
   10.5110  -10.0491    0.0000 N   0  0
   10.2291   -5.8115    0.0000 N   0  0
    9.2342   -7.7334    0.0000 C   0  0
    9.2750   -8.2359    0.0000 C   0  0
    8.4260   -9.3802    0.0000 C   0  0
    8.2495   -6.7079    0.0000 C   0  0
    9.0916   -9.8692    0.0000 C   0  0
    8.8404   -6.1341    0.0000 C   0  0
    9.8318   -7.1561    0.0000 C   0  0
    9.9371   -8.7181    0.0000 C   0  0
    5.7164   -8.5008    0.0000 C   0  0
   10.4226  -10.8573    0.0000 C   0  0
   11.2851   -9.7232    0.0000 C   0  0
   10.0457   -5.0000    0.0000 C   0  0
   11.0169   -6.0390    0.0000 C   0  0
    5.7164   -6.8369    0.0000 C   0  0
    5.0000   -8.0695    0.0000 C   0  0
    5.0000   -7.2478    0.0000 C   0  0
  2  1  1  0
  3  1  1  0
  4  3  2  0
  5  2  1  0
  6  1  1  0
  7  1  1  0
  8  4  1  0
  9 17  2  0
 10 19  2  0
 11  9  1  0
 12 10  1  0
 13  7  2  0
 14  6  1  0
 15  6  2  0
 16  7  1  0
 17 15  1  0
 18 16  2  0
 19 13  1  0
 20 14  2  0
 21  5  1  0
 22 11  1  0
 23 11  1  0
 24 12  1  0
 25 12  1  0
 26  8  1  0
 27 21  2  0
 28 26  2  0
  8  5  2  0
 10 18  1  0
  9 20  1  0
 28 27  1  0
M  END
> <COMPOUND_ID>
DNDI1417721

$$$$

  SciTegic04051205032D

 27 29  0  0  0  0            999 V2000
    7.3202   -9.1655    0.0000 C   0  0
    6.5956  -10.4044    0.0000 C   0  0
    7.3202   -9.9930    0.0000 C   0  0
    5.8663   -9.9930    0.0000 C   0  0
    6.5956   -8.7495    0.0000 C   0  0
    5.8663   -9.1655    0.0000 C   0  0
    8.0495   -8.7495    0.0000 C   0  0
    8.0495  -10.4044    0.0000 N   0  0
    6.5956  -11.2272    0.0000 N   0  0
    8.7648   -9.1655    0.0000 C   0  0
    8.7648   -9.9930    0.0000 C   0  0
    6.5956   -7.9360    0.0000 O   0  0
    5.1650   -8.7728    0.0000 O   0  0
    8.0495   -7.8939    0.0000 N   0  0
    8.0542   -6.2249    0.0000 N   0  0
    8.7648   -7.4825    0.0000 C   0  0
    7.2968  -11.6339    0.0000 C   0  0
    5.8943  -11.6667    0.0000 C   0  0
    8.7648   -6.6176    0.0000 C   0  0
    9.4848  -10.4044    0.0000 C   0  0
    7.3622   -6.6410    0.0000 C   0  0
    8.0495   -5.4115    0.0000 C   0  0
    5.9036  -12.4802    0.0000 C   0  0
    7.3061  -12.4614    0.0000 C   0  0
    6.6470   -6.2483    0.0000 C   0  0
    8.7274   -5.0000    0.0000 C   0  0
    6.6236  -12.8869    0.0000 C   0  0
  2  3  1  0
  3  1  1  0
  4  6  1  0
  5  1  1  0
  6  5  1  0
  7  1  2  0
  8  3  2  0
  9  2  1  0
 10  7  1  0
 11 10  2  0
 12  5  2  0
 13  6  2  0
 14  7  1  0
 15 19  1  0
 16 14  1  0
 17  9  1  0
 18  9  1  0
 19 16  1  0
 20 11  1  0
 21 15  1  0
 22 15  1  0
 23 18  1  0
 24 17  1  0
 25 21  1  0
 26 22  1  0
 27 23  1  0
 11  8  1  0
  4  2  2  0
 27 24  1  0
M  END
> <COMPOUND_ID>
DNDI1417722

$$$$

  SciTegic04051205032D

 26 28  0  0  0  0            999 V2000
    8.8506   -6.3924    0.0000 C   0  0
    8.7440   -7.2072    0.0000 C   0  0
    9.6757   -6.2480    0.0000 N   0  0
    9.5072   -7.5682    0.0000 O   0  0
   10.0676   -6.9459    0.0000 C   0  0
    7.9704   -7.5337    0.0000 N   0  0
    6.4336   -8.1216    0.0000 N   0  0
    8.2627   -5.8045    0.0000 C   0  0
    5.6498   -8.4139    0.0000 C   0  0
    7.7126   -5.2475    0.0000 N   0  0
   10.8825   -7.0318    0.0000 C   0  0
   11.3534   -6.3580    0.0000 C   0  0
    7.3241   -7.0112    0.0000 C   0  0
    7.8604   -8.3314    0.0000 C   0  0
    6.5643   -7.3309    0.0000 C   0  0
    7.0869   -8.6511    0.0000 C   0  0
    5.5019   -9.2184    0.0000 O   0  0
   12.1511   -6.4233    0.0000 C   0  0
   13.8013   -6.5368    0.0000 C   0  0
   14.6298   -6.5368    0.0000 Cl  0  0
   12.5018   -7.1556    0.0000 C   0  0
   12.6255   -5.7426    0.0000 C   0  0
   13.4540   -5.8045    0.0000 C   0  0
   13.3372   -7.2381    0.0000 C   0  0
    5.0000   -7.8947    0.0000 C   0  0
    5.1444   -7.0628    0.0000 C   0  0
  2  1  2  0
  3  1  1  0
  4  2  1  0
  5  3  2  0
  6  2  1  0
  7 16  1  0
  8  1  1  0
  9  7  1  0
 10  8  3  0
 11  5  1  0
 12 11  2  0
 13  6  1  0
 14  6  1  0
 15 13  1  0
 16 14  1  0
 17  9  2  0
 18 12  1  0
 19 23  2  0
 20 19  1  0
 21 18  1  0
 22 18  2  0
 23 22  1  0
 24 21  2  0
 25  9  1  0
 26 25  1  0
  5  4  1  0
 15  7  1  0
 24 19  1  0
M  END
> <COMPOUND_ID>
DNDI1417723

$$$$

  SciTegic04051205032D

 25 27  0  0  0  0            999 V2000
    9.6474   -6.0572    0.0000 C   0  0
   10.3543   -6.4740    0.0000 C   0  0
    8.1938   -7.7319    0.0000 C   0  0
    8.9225   -7.3114    0.0000 N   0  0
    8.9442   -6.4740    0.0000 O   0  0
   11.1482   -6.2094    0.0000 S   0  0
    8.1938   -8.5693    0.0000 N   0  0
    7.4712   -7.3114    0.0000 C   0  0
    9.6474   -5.2475    0.0000 O   0  0
   10.3543   -7.3114    0.0000 C   0  0
   11.6086   -6.8945    0.0000 C   0  0
   11.1482   -7.5543    0.0000 C   0  0
    7.4712   -6.4740    0.0000 C   0  0
    6.7679   -7.7102    0.0000 C   0  0
    8.9007   -8.9862    0.0000 C   0  0
    6.0586   -6.4740    0.0000 C   0  0
    6.0586   -7.3114    0.0000 C   0  0
    6.7679   -6.0572    0.0000 C   0  0
    5.3300   -6.0330    0.0000 Cl  0  0
    8.9007   -9.8019    0.0000 C   0  0
    8.1938  -10.2223    0.0000 C   0  0
    9.6040  -10.2223    0.0000 C   0  0
    8.1938  -11.0380    0.0000 C   0  0
    9.6040  -11.0380    0.0000 C   0  0
    8.9007  -11.4585    0.0000 C   0  0
  2  1  1  0
  3  4  2  0
  4  5  1  0
  5  1  1  0
  6  2  1  0
  7  3  1  0
  8  3  1  0
  9  1  2  0
 10  2  2  0
 11  6  1  0
 12 10  1  0
 13  8  2  0
 14  8  1  0
 15  7  1  0
 16 17  1  0
 17 14  2  0
 18 13  1  0
 19 16  1  0
 20 15  1  0
 21 20  2  0
 22 20  1  0
 23 21  1  0
 24 22  2  0
 25 24  1  0
 12 11  2  0
 18 16  2  0
 23 25  2  0
M  END
> <COMPOUND_ID>
DNDI1417724

$$$$

  SciTegic04051205032D

 27 29  0  0  0  0            999 V2000
    7.8487   -6.9088    0.0000 C   0  0
    7.8487   -7.7366    0.0000 C   0  0
    7.1388   -8.1452    0.0000 C   0  0
    7.1388   -6.5013    0.0000 C   0  0
    6.4255   -7.7366    0.0000 C   0  0
    8.5620   -8.1452    0.0000 N   0  0
    6.4255   -6.9088    0.0000 C   0  0
    9.9991   -8.9659    0.0000 N   0  0
   10.7125   -9.3990    0.0000 C   0  0
    8.5760   -6.4839    0.0000 N   0  0
    8.5760   -5.6619    0.0000 C   0  0
    7.1388   -8.9659    0.0000 O   0  0
    7.1388   -5.6725    0.0000 O   0  0
    9.2741   -7.7366    0.0000 C   0  0
    8.5620   -8.9659    0.0000 C   0  0
    9.2741   -9.3827    0.0000 C   0  0
    9.9991   -8.1452    0.0000 C   0  0
   10.7125  -10.2198    0.0000 O   0  0
    9.2882   -5.2475    0.0000 O   0  0
   11.4246   -8.9869    0.0000 O   0  0
    5.7063   -8.1452    0.0000 C   0  0
    5.7063   -6.5013    0.0000 C   0  0
    7.8627   -5.2475    0.0000 C   0  0
   11.4246   -8.1603    0.0000 C   0  0
    5.0000   -6.9088    0.0000 C   0  0
    5.0000   -7.7366    0.0000 C   0  0
   12.1380   -7.7366    0.0000 C   0  0
  2  1  2  0
  3  2  1  0
  4  1  1  0
  5  7  2  0
  6  2  1  0
  7  4  1  0
  8 16  1  0
  9  8  1  0
 10  1  1  0
 11 10  1  0
 12  3  2  0
 13  4  2  0
 14  6  1  0
 15  6  1  0
 16 15  1  0
 17 14  1  0
 18  9  2  0
 19 11  2  0
 20  9  1  0
 21  5  1  0
 22  7  1  0
 23 11  1  0
 24 20  1  0
 25 22  2  0
 26 25  1  0
 27 24  1  0
  5  3  1  0
 17  8  1  0
 21 26  2  0
M  END
> <COMPOUND_ID>
DNDI1417725

$$$$

  SciTegic04051205032D

 26 28  0  0  0  0            999 V2000
    8.7494   -8.6595    0.0000 C   0  0
    7.9675   -8.8941    0.0000 N   0  0
    7.4866   -8.2255    0.0000 C   0  0
    9.4219   -9.1482    0.0000 N   0  0
   10.1726   -8.8002    0.0000 C   0  0
    8.7768   -7.8697    0.0000 S   0  0
   10.2390   -7.9753    0.0000 C   0  0
   10.4071   -6.3371    0.0000 C   0  0
    8.0027   -7.5804    0.0000 C   0  0
   11.0757   -6.8180    0.0000 C   0  0
    9.6408   -6.6773    0.0000 C   0  0
    9.5744   -7.5061    0.0000 C   0  0
   10.9897   -7.6351    0.0000 C   0  0
    6.6733   -8.2255    0.0000 C   0  0
    6.2667   -8.9488    0.0000 N   0  0
   10.8411   -9.2772    0.0000 O   0  0
   10.5205   -5.5161    0.0000 O   0  0
    8.9722   -6.2198    0.0000 O   0  0
   11.8342   -6.4779    0.0000 O   0  0
    5.4340   -8.9645    0.0000 C   0  0
    6.2316   -7.5335    0.0000 C   0  0
    9.8559   -5.0000    0.0000 C   0  0
    9.0348   -5.3753    0.0000 C   0  0
   12.5027   -6.9470    0.0000 C   0  0
    5.0000   -8.2568    0.0000 C   0  0
    5.4066   -7.5335    0.0000 C   0  0
  2  1  2  0
  3  2  1  0
  4  1  1  0
  5  4  1  0
  6  1  1  0
  7  5  1  0
  8 10  2  0
  9  6  1  0
 10 13  1  0
 11 12  2  0
 12  7  1  0
 13  7  2  0
 14  3  1  0
 15 14  1  0
 16  5  2  0
 17  8  1  0
 18 11  1  0
 19 10  1  0
 20 15  2  0
 21 14  2  0
 22 17  1  0
 23 18  1  0
 24 19  1  0
 25 26  2  0
 26 21  1  0
  9  3  2  0
  8 11  1  0
 25 20  1  0
M  END
> <COMPOUND_ID>
DNDI1417726

$$$$

  SciTegic04051205032D

 26 28  0  0  0  0            999 V2000
    7.1420   -7.4858    0.0000 S   0  0
    8.6135  -10.7556    0.0000 C   0  0
    8.6067   -9.9235    0.0000 C   0  0
    7.8812   -9.5247    0.0000 C   0  0
    7.9018  -11.1750    0.0000 C   0  0
    7.1420   -6.6606    0.0000 N   0  0
    7.1798  -10.7693    0.0000 N   0  0
    7.1420   -8.2972    0.0000 C   0  0
    9.3322  -11.1475    0.0000 C   0  0
    7.8675   -8.6995    0.0000 C   0  0
    7.1695   -9.9476    0.0000 C   0  0
    7.9500   -7.4858    0.0000 O   0  0
    6.3133   -7.4720    0.0000 O   0  0
    6.4303   -6.2481    0.0000 C   0  0
    9.3184   -9.5109    0.0000 O   0  0
    9.3425  -11.9864    0.0000 O   0  0
    6.4441   -8.7236    0.0000 C   0  0
    6.4509   -9.5488    0.0000 C   0  0
    6.4303   -5.4160    0.0000 C   0  0
   10.0439  -10.7349    0.0000 N   0  0
    5.7117   -6.6606    0.0000 C   0  0
    7.1420   -5.0000    0.0000 C   0  0
    5.7117   -5.0068    0.0000 C   0  0
   10.7659  -11.1441    0.0000 C   0  0
    5.0000   -6.2481    0.0000 C   0  0
    5.0000   -5.4160    0.0000 C   0  0
  2  3  1  0
  3  4  1  0
  4 10  2  0
  5  7  1  0
  6  1  1  0
  7 11  1  0
  8  1  1  0
  9  2  1  0
 10  8  1  0
 11 18  2  0
 12  1  2  0
 13  1  2  0
 14  6  1  0
 15  3  2  0
 16  9  2  0
 17  8  2  0
 18 17  1  0
 19 14  1  0
 20  9  1  0
 21 14  2  0
 22 19  1  0
 23 19  2  0
 24 20  1  0
 25 21  1  0
 26 25  2  0
  4 11  1  0
 23 26  1  0
  2  5  2  0
M  END
> <COMPOUND_ID>
DNDI1417727

$$$$

  SciTegic04051205032D

 25 28  0  0  0  0            999 V2000
    7.9467   -5.7805    0.0000 S   0  0
   10.7938   -7.8058    0.0000 C   0  0
   10.9864   -7.0183    0.0000 N   0  0
    9.9858   -7.8677    0.0000 S   0  0
    9.6591   -7.1146    0.0000 C   0  0
   10.2883   -6.5782    0.0000 C   0  0
    7.1800   -5.4951    0.0000 N   0  0
    8.7204   -6.0384    0.0000 C   0  0
    6.4304   -5.9077    0.0000 C   0  0
    8.8854   -6.8567    0.0000 C   0  0
    6.4304   -6.7192    0.0000 C   0  0
    7.6785   -6.5644    0.0000 O   0  0
    8.2046   -5.0000    0.0000 O   0  0
   10.1199   -5.7805    0.0000 C   0  0
   11.3508   -8.4350    0.0000 O   0  0
    7.1525   -7.1249    0.0000 N   0  0
    9.3496   -5.5054    0.0000 C   0  0
    5.7186   -7.1249    0.0000 C   0  0
   11.7428   -6.7192    0.0000 C   0  0
    5.7359   -5.4813    0.0000 C   0  0
    5.0000   -5.8871    0.0000 C   0  0
    7.1525   -7.9605    0.0000 C   0  0
    5.0000   -6.7330    0.0000 C   0  0
    5.7186   -7.9605    0.0000 C   0  0
    6.4304   -8.3731    0.0000 C   0  0
  2  4  1  0
  3  6  1  0
  4  5  1  0
  5 10  1  0
  6 14  1  0
  7  1  1  0
  8  1  1  0
  9  7  1  0
 10  8  2  0
 11  9  1  0
 12  1  2  0
 13  1  2  0
 14 17  2  0
 15  2  2  0
 16 11  1  0
 17  8  1  0
 18 11  2  0
 19  3  1  0
 20  9  2  0
 21 20  1  0
 22 16  2  0
 23 21  2  0
 24 18  1  0
 25 24  2  0
  5  6  2  0
  2  3  1  0
 23 18  1  0
 25 22  1  0
M  END
> <COMPOUND_ID>
DNDI1417728

$$$$

  SciTegic04051205032D

 27 29  0  0  0  0            999 V2000
    6.9834   -6.6670    0.0000 C   0  0
    7.6663   -6.2579    0.0000 C   0  0
    5.7100   -7.4039    0.0000 C   0  0
    6.5396   -7.4039    0.0000 C   0  0
    7.4927  -10.1166    0.0000 C   0  0
    5.3049   -6.6670    0.0000 O   0  0
    8.3840  -10.1166    0.0000 C   0  0
    8.3840   -6.6670    0.0000 C   0  0
    7.6663   -5.4168    0.0000 C   0  0
    9.1249   -5.4168    0.0000 C   0  0
    9.1249   -6.2579    0.0000 C   0  0
    8.3840   -5.0000    0.0000 C   0  0
    7.5506   -8.6927    0.0000 N   0  0
    5.7100   -5.9608    0.0000 C   0  0
    9.8194   -5.0232    0.0000 F   0  0
    8.8200   -9.4452    0.0000 O   0  0
    6.5396   -5.9608    0.0000 C   0  0
    7.4117   -7.3152    0.0000 C   0  0
    7.1647   -9.3950    0.0000 C   0  0
    5.3859   -8.1834    0.0000 C   0  0
    7.1068  -10.8535    0.0000 C   0  0
    5.0000   -7.8130    0.0000 C   0  0
    8.7545  -10.8690    0.0000 C   0  0
    7.1068   -8.0561    0.0000 C   0  0
    5.8489   -8.8548    0.0000 C   0  0
    7.4927  -11.5867    0.0000 C   0  0
    8.3262  -11.5867    0.0000 C   0  0
  2  1  1  0
  3  4  1  0
  4  1  1  0
  5 19  1  0
  6 14  1  0
  7  5  1  0
  8  2  2  0
  9  2  1  0
 10 12  1  0
 11  8  1  0
 12  9  2  0
 13 24  1  0
 14 17  1  0
 15 10  1  0
 16  7  1  0
 17  1  1  0
 18  1  1  0
 19 13  1  0
 20  3  1  0
 21  5  2  0
 22  3  1  0
 23  7  2  0
 24 18  1  0
 25 20  1  0
 26 21  1  0
 27 26  2  0
  3  6  1  0
 11 10  2  0
 23 27  1  0
M  END
> <COMPOUND_ID>
DNDI1417729

$$$$

  SciTegic04051205032D

 26 28  0  0  0  0            999 V2000
    8.6127   -7.6847    0.0000 N   0  0
    7.9115   -7.2791    0.0000 C   0  0
    8.6952   -8.4891    0.0000 C   0  0
    7.9115   -6.4679    0.0000 N   0  0
    7.2137   -7.6778    0.0000 N   0  0
    7.2137   -6.0484    0.0000 C   0  0
    6.5125   -6.4679    0.0000 C   0  0
    9.3518   -7.3513    0.0000 N   0  0
    6.5125   -7.2791    0.0000 C   0  0
    9.4859   -8.6541    0.0000 C   0  0
    8.3446   -9.4137    0.0000 N   0  0
    7.5196   -9.5409    0.0000 C   0  0
    7.2137  -10.3350    0.0000 C   0  0
    9.8914   -7.9528    0.0000 C   0  0
    7.2137   -5.2475    0.0000 O   0  0
    6.4025  -10.4587    0.0000 C   0  0
    6.9903   -8.9016    0.0000 O   0  0
    5.8112   -6.0622    0.0000 C   0  0
    5.8731   -9.8056    0.0000 Cl  0  0
    5.7356   -7.4475    0.0000 C   0  0
    7.7499  -10.9744    0.0000 C   0  0
   10.7027   -7.8669    0.0000 C   0  0
    6.0931  -11.2322    0.0000 C   0  0
    5.0000   -6.0484    0.0000 C   0  0
    7.4543  -11.7512    0.0000 C   0  0
    6.6327  -11.8887    0.0000 C   0  0
  2  1  1  0
  3  1  1  0
  4  2  1  0
  5  2  2  0
  6  4  1  0
  7  9  2  0
  8  1  1  0
  9  5  1  0
 10  3  2  0
 11  3  1  0
 12 11  1  0
 13 12  1  0
 14  8  2  0
 15  6  2  0
 16 13  1  0
 17 12  2  0
 18  7  1  0
 19 16  1  0
 20  9  1  0
 21 13  2  0
 22 14  1  0
 23 16  2  0
 24 18  1  0
 25 21  1  0
 26 25  2  0
 10 14  1  0
  6  7  1  0
 26 23  1  0
M  END
> <COMPOUND_ID>
DNDI1417730

$$$$

  SciTegic04051205032D

 25 28  0  0  0  0            999 V2000
    8.1781   -7.3288    0.0000 C   0  0
    8.1781   -6.6576    0.0000 N   0  0
    7.5953   -5.6651    0.0000 C   0  0
    7.5953   -7.6685    0.0000 N   0  0
   10.4357   -6.1492    0.0000 O   0  0
    7.5953   -6.3231    0.0000 C   0  0
   11.0113   -6.9058    0.0000 C   0  0
    7.0299   -7.3288    0.0000 C   0  0
    9.3395   -6.1492    0.0000 C   0  0
   10.4357   -7.6187    0.0000 C   0  0
    8.7842   -6.9058    0.0000 C   0  0
    7.0299   -6.6576    0.0000 C   0  0
    8.7842   -7.6685    0.0000 S   0  0
    9.3395   -7.6187    0.0000 C   0  0
   11.0032   -5.6804    0.0000 O   0  0
    6.3170   -7.7448    0.0000 C   0  0
    6.2407   -8.5777    0.0000 O   0  0
    9.3395   -5.6804    0.0000 C   0  0
    5.5553   -7.4143    0.0000 C   0  0
   10.8751   -8.2085    0.0000 O   0  0
    5.4424   -8.7394    0.0000 C   0  0
    5.0000   -8.0255    0.0000 C   0  0
    7.5953   -5.0000    0.0000 F   0  0
    6.9231   -5.6651    0.0000 F   0  0
    8.2696   -5.6651    0.0000 F   0  0
  2  1  2  0
  3  6  1  0
  4  1  1  0
  5  9  1  0
  6  2  1  0
  7 10  1  0
  8  4  2  0
  9 11  1  0
 10 14  1  0
 11 13  1  0
 12  8  1  0
 13  1  1  0
 14 11  1  0
 15 18  1  0
 16  8  1  0
 17 16  1  0
 18  9  1  0
 19 16  2  0
 20 10  2  0
 21 17  1  0
 22 19  1  0
 23  3  1  0
 24  3  1  0
 25  3  1  0
  6 12  2  0
  7  5  1  0
 15  7  1  0
 21 22  2  0
M  END
> <COMPOUND_ID>
DNDI1417731

$$$$

  SciTegic04051205032D

 28 31  0  0  0  0            999 V2000
    7.1636   -6.6523    0.0000 C   0  0
    7.8804   -6.2370    0.0000 C   0  0
    7.1547   -7.4762    0.0000 N   0  0
    8.5971   -6.6523    0.0000 C   0  0
    6.4379   -6.2303    0.0000 C   0  0
    6.4379   -7.8848    0.0000 C   0  0
    9.3072   -6.2393    0.0000 C   0  0
    7.8804   -5.4287    0.0000 C   0  0
   10.0216   -6.6523    0.0000 N   0  0
    6.4379   -5.4086    0.0000 C   0  0
    5.7167   -7.4695    0.0000 O   0  0
    6.4379   -8.7088    0.0000 C   0  0
    9.3138   -5.4287    0.0000 C   0  0
    8.5904   -5.0134    0.0000 C   0  0
    8.5904   -7.4829    0.0000 O   0  0
    7.1547   -5.0000    0.0000 F   0  0
    5.7167   -6.6523    0.0000 C   0  0
   10.7361   -6.2437    0.0000 C   0  0
    5.7167   -5.0000    0.0000 C   0  0
    5.7100   -9.1151    0.0000 C   0  0
    7.1435   -9.1218    0.0000 C   0  0
   10.0283   -5.0134    0.0000 C   0  0
    5.0000   -6.2303    0.0000 C   0  0
   10.7361   -5.4287    0.0000 C   0  0
    7.1346   -9.9480    0.0000 C   0  0
    5.7100   -9.9413    0.0000 C   0  0
    5.0000   -5.4153    0.0000 C   0  0
    6.4268  -10.3566    0.0000 C   0  0
  2  1  1  0
  3  1  1  0
  4  2  2  0
  5  1  1  0
  6  3  1  0
  7  4  1  0
  8  2  1  0
  9  7  2  0
 10  5  2  0
 11  6  2  0
 12  6  1  0
 13 14  1  0
 14  8  2  0
 15  4  1  0
 16 10  1  0
 17  5  1  0
 18  9  1  0
 19 10  1  0
 20 12  2  0
 21 12  1  0
 22 13  2  0
 23 17  2  0
 24 22  1  0
 25 21  2  0
 26 20  1  0
 27 23  1  0
 28 26  2  0
 27 19  2  0
 13  7  1  0
 28 25  1  0
 24 18  2  0
M  END
> <COMPOUND_ID>
DNDI1417732

$$$$

  SciTegic04051205032D

 28 31  0  0  0  0            999 V2000
    6.4321   -8.7076    0.0000 C   0  0
    6.4321   -9.5385    0.0000 C   0  0
    7.1544   -9.9476    0.0000 N   0  0
    7.1544   -8.2942    0.0000 N   0  0
    7.8558   -8.7076    0.0000 C   0  0
    7.8558   -9.5385    0.0000 C   0  0
    5.7182   -8.2942    0.0000 C   0  0
    5.7182   -9.9476    0.0000 C   0  0
    5.0000   -8.7076    0.0000 N   0  0
    5.0000   -9.5385    0.0000 N   0  0
    8.5740   -8.2859    0.0000 N   0  0
    8.5740   -9.9476    0.0000 N   0  0
    5.7182  -10.7785    0.0000 N   0  0
    5.7182   -7.4843    0.0000 N   0  0
    8.5615   -7.4717    0.0000 C   0  0
    9.2880   -9.5259    0.0000 C   0  0
    8.5615   -5.8183    0.0000 C   0  0
   10.7159   -8.7076    0.0000 C   0  0
    9.2880   -7.0542    0.0000 C   0  0
   10.0103   -9.9476    0.0000 C   0  0
    7.8558   -7.0584    0.0000 C   0  0
    9.2880   -8.7076    0.0000 C   0  0
   10.7159   -9.5259    0.0000 C   0  0
    7.8558   -6.2400    0.0000 C   0  0
    9.9977   -8.2942    0.0000 C   0  0
    9.2880   -6.2317    0.0000 C   0  0
    8.5615   -5.0000    0.0000 C   0  0
   11.4299   -8.2859    0.0000 C   0  0
  2  1  2  0
  3  2  1  0
  4  1  1  0
  5  4  2  0
  6  5  1  0
  7  1  1  0
  8  2  1  0
  9  7  2  0
 10  9  1  0
 11  5  1  0
 12  6  1  0
 13  8  1  0
 14  7  1  0
 15 11  1  0
 16 12  1  0
 17 24  1  0
 18 25  1  0
 19 15  2  0
 20 16  2  0
 21 15  1  0
 22 16  1  0
 23 20  1  0
 24 21  2  0
 25 22  2  0
 26 19  1  0
 27 17  1  0
 28 18  1  0
 10  8  2  0
  6  3  2  0
 17 26  2  0
 18 23  2  0
M  END
> <COMPOUND_ID>
DNDI1417733

$$$$

  SciTegic04051205032D

 26 28  0  0  0  0            999 V2000
    5.7040   -7.4659    0.0000 C   0  0
    5.7040   -8.3114    0.0000 C   0  0
    6.4495   -7.0618    0.0000 C   0  0
    7.8491   -7.0618    0.0000 C   0  0
    7.1493   -7.4659    0.0000 C   0  0
    8.5655   -7.4659    0.0000 C   0  0
    9.2986   -7.0618    0.0000 C   0  0
    7.8533   -9.5277    0.0000 C   0  0
    5.0500   -8.7780    0.0000 O   0  0
    7.1493   -8.3114    0.0000 S   0  0
    7.1993  -10.0151    0.0000 O   0  0
    9.2986   -6.2621    0.0000 C   0  0
    6.3995   -8.7780    0.0000 C   0  0
    8.5155  -10.0151    0.0000 C   0  0
    5.2999   -9.5610    0.0000 C   0  0
    7.4492  -10.8106    0.0000 C   0  0
    5.0000   -7.0618    0.0000 O   0  0
    7.8491   -6.2621    0.0000 C   0  0
    6.1496   -9.5610    0.0000 C   0  0
    8.2989  -10.8106    0.0000 C   0  0
    8.5530   -5.8164    0.0000 C   0  0
    7.8533   -8.7113    0.0000 C   0  0
    9.9984   -7.4659    0.0000 O   0  0
    9.9984   -5.8164    0.0000 O   0  0
   10.7023   -7.0618    0.0000 C   0  0
    9.9984   -5.0000    0.0000 C   0  0
  2  1  1  0
  3  1  1  0
  4  5  1  0
  5  3  1  0
  6  4  2  0
  7  6  1  0
  8 22  1  0
  9  2  1  0
 10  5  1  0
 11  8  1  0
 12 21  1  0
 13  2  2  0
 14  8  2  0
 15  9  1  0
 16 11  1  0
 17  1  2  0
 18  4  1  0
 19 13  1  0
 20 14  1  0
 21 18  2  0
 22 10  1  0
 23  7  1  0
 24 12  1  0
 25 23  1  0
 26 24  1  0
 15 19  2  0
  7 12  2  0
 16 20  2  0
M  END
> <COMPOUND_ID>
DNDI1417734

$$$$

  SciTegic04051205032D

 26 28  0  0  0  0            999 V2000
    6.4233   -6.4817    0.0000 C   0  0
    7.1453   -6.9080    0.0000 C   0  0
    9.9988   -7.7365    0.0000 C   0  0
    7.1418   -7.7296    0.0000 N   0  0
   10.7104   -8.1490    0.0000 N   0  0
    9.2803   -8.1422    0.0000 C   0  0
   12.1338   -8.9776    0.0000 C   0  0
    6.4233   -5.6600    0.0000 C   0  0
    5.7117   -6.8942    0.0000 O   0  0
   12.7938   -9.4658    0.0000 O   0  0
    5.7117   -5.2475    0.0000 S   0  0
    7.8535   -8.1422    0.0000 C   0  0
    7.8570   -6.4954    0.0000 O   0  0
    8.5686   -7.7296    0.0000 C   0  0
   12.1372   -8.1525    0.0000 C   0  0
    9.9988   -6.9148    0.0000 O   0  0
   11.4497   -9.4589    0.0000 C   0  0
   12.5360  -10.2497    0.0000 C   0  0
   11.7006  -10.2394    0.0000 C   0  0
   11.4256   -7.7296    0.0000 C   0  0
    9.2803   -8.9638    0.0000 C   0  0
    8.5651   -9.3867    0.0000 C   0  0
    5.0000   -5.6600    0.0000 C   0  0
    5.0000   -6.4817    0.0000 C   0  0
    7.8535   -8.9638    0.0000 C   0  0
   11.4256   -6.9080    0.0000 C   0  0
  2  1  1  0
  3  6  1  0
  4  2  1  0
  5  3  1  0
  6 14  2  0
  7 15  1  0
  8  1  2  0
  9  1  1  0
 10  7  1  0
 11  8  1  0
 12  4  1  0
 13  2  2  0
 14 12  1  0
 15 20  1  0
 16  3  2  0
 17  7  2  0
 18 10  1  0
 19 17  1  0
 20  5  1  0
 21 22  2  0
 22 25  1  0
 23 24  1  0
 24  9  1  0
 25 12  2  0
 26 20  1  0
 11 23  1  0
 21  6  1  0
 19 18  2  0
M  END
> <COMPOUND_ID>
DNDI1417735

$$$$

  SciTegic04051205032D

 26 28  0  0  0  0            999 V2000
    9.3292   -6.4401    0.0000 C   0  0
    8.6831   -6.9155    0.0000 S   0  0
    7.9908   -6.4401    0.0000 C   0  0
   10.0954   -6.7170    0.0000 C   0  0
    7.2246   -6.6939    0.0000 C   0  0
    9.1077   -5.6416    0.0000 C   0  0
    8.2677   -5.6416    0.0000 C   0  0
   10.7139   -6.1955    0.0000 C   0  0
    6.6062   -6.1631    0.0000 C   0  0
   11.6324   -7.2478    0.0000 N   0  0
    5.6877   -7.2016    0.0000 N   0  0
   11.4892   -6.4724    0.0000 C   0  0
    5.8400   -6.4170    0.0000 C   0  0
   11.0093   -7.7878    0.0000 C   0  0
    6.2830   -7.7324    0.0000 C   0  0
   10.2477   -7.5247    0.0000 C   0  0
    7.0723   -7.4785    0.0000 C   0  0
    9.6062   -5.0000    0.0000 C   0  0
   12.2416   -6.8047    0.0000 C   0  0
    5.0000   -6.5278    0.0000 C   0  0
    6.0061   -5.6508    0.0000 C   0  0
   11.4108   -5.6508    0.0000 C   0  0
   11.8354   -8.0093    0.0000 C   0  0
    5.4661   -8.0093    0.0000 C   0  0
    6.9615   -8.1985    0.0000 C   0  0
   10.3400   -8.4893    0.0000 C   0  0
  2  1  1  0
  3  2  1  0
  4  1  1  0
  5  3  1  0
  6  1  2  0
  7  6  1  0
  8  4  2  0
  9  5  2  0
 10 14  1  0
 11 15  1  0
 12  8  1  0
 13  9  1  0
 14 16  1  0
 15 17  1  0
 16  4  1  0
 17  5  1  0
 18  6  1  0
 19 12  1  0
 20 13  1  0
 21 13  1  0
 22 12  1  0
 23 14  1  0
 24 15  1  0
 25 15  1  0
 26 14  1  0
  3  7  2  0
 10 12  1  0
 13 11  1  0
M  END
> <COMPOUND_ID>
DNDI1417736

$$$$

  SciTegic04051205032D

 26 29  0  0  0  0            999 V2000
    6.5147   -8.9354    0.0000 N   0  0
    7.2357  -10.1769    0.0000 N   0  0
    7.9436   -9.7552    0.0000 C   0  0
    6.5147   -9.7552    0.0000 C   0  0
    7.2239   -8.5125    0.0000 C   0  0
    8.6502  -10.1769    0.0000 C   0  0
    7.9436   -8.9354    0.0000 C   0  0
    7.2096   -7.7057    0.0000 C   0  0
    6.4913   -6.4655    0.0000 C   0  0
    6.5030   -7.2919    0.0000 C   0  0
    9.3724   -9.7552    0.0000 C   0  0
    7.2096   -6.0439    0.0000 C   0  0
    5.8823   -5.9190    0.0000 O   0  0
    8.6502  -10.9967    0.0000 C   0  0
    7.0248   -5.2475    0.0000 O   0  0
    6.2180   -5.1733    0.0000 C   0  0
    7.9319   -7.2919    0.0000 C   0  0
    7.9319   -6.4655    0.0000 C   0  0
    5.7951  -10.2003    0.0000 C   0  0
   10.0934  -10.1769    0.0000 C   0  0
    9.3724  -11.4183    0.0000 C   0  0
   10.0790  -10.9967    0.0000 C   0  0
    9.3724  -12.2382    0.0000 Cl  0  0
    9.3959   -8.9354    0.0000 O   0  0
    5.0000   -9.9895    0.0000 C   0  0
    5.7912  -11.0201    0.0000 C   0  0
  2  4  1  0
  3  7  1  0
  4  1  1  0
  5  1  2  0
  6  3  1  0
  7  5  1  0
  8  5  1  0
  9 10  2  0
 10  8  1  0
 11  6  2  0
 12 18  2  0
 13  9  1  0
 14  6  1  0
 15 12  1  0
 16 13  1  0
 17  8  2  0
 18 17  1  0
 19  4  1  0
 20 11  1  0
 21 14  2  0
 22 21  1  0
 23 21  1  0
 24 11  1  0
 25 19  1  0
 26 19  1  0
  3  2  1  0
  9 12  1  0
 15 16  1  0
 20 22  2  0
M  END
> <COMPOUND_ID>
DNDI1417737

$$$$

  SciTegic04051205032D

 27 29  0  0  0  0            999 V2000
   11.4237   -8.7134    0.0000 N   0  0
   10.7127   -8.2943    0.0000 C   0  0
    9.9947   -8.7031    0.0000 C   0  0
    9.2836   -9.9501    0.0000 C   0  0
    9.9947   -9.5344    0.0000 N   0  0
   10.7057   -7.4665    0.0000 C   0  0
    9.2767  -10.7676    0.0000 O   0  0
   11.4237   -7.0543    0.0000 C   0  0
    9.9947   -7.0543    0.0000 C   0  0
    7.8546   -9.9501    0.0000 O   0  0
    8.5657   -9.5344    0.0000 C   0  0
    7.1435   -9.5344    0.0000 C   0  0
    5.7145   -8.7134    0.0000 C   0  0
    9.9913   -6.2298    0.0000 C   0  0
   11.4237   -6.2298    0.0000 C   0  0
   10.7057   -5.8176    0.0000 C   0  0
    5.0000   -8.3012    0.0000 Cl  0  0
    6.4325   -9.9501    0.0000 C   0  0
    7.1435   -8.7134    0.0000 C   0  0
    6.4325   -8.2978    0.0000 C   0  0
    5.7248   -9.5413    0.0000 C   0  0
   11.4993   -9.5276    0.0000 C   0  0
   12.1794   -8.3734    0.0000 C   0  0
   10.7024   -5.0000    0.0000 C   0  0
   12.7256   -8.9917    0.0000 C   0  0
   12.3100   -9.7131    0.0000 C   0  0
   10.7057   -9.9501    0.0000 H   0  0
  2  1  1  0
  3  2  1  0
  4  5  1  0
  5  3  1  0
  6  2  1  0
  7  4  2  0
  8  6  2  0
  9  6  1  0
 10 11  1  0
 11  4  1  0
 12 10  1  0
 13 20  2  0
 14  9  2  0
 15  8  1  0
 16 14  1  0
 17 13  1  0
 18 12  1  0
 19 12  2  0
 20 19  1  0
 21 18  2  0
 22  1  1  0
 23  1  1  0
 24 16  1  0
 25 23  1  0
 26 22  1  0
 26 25  1  0
 15 16  2  0
 13 21  1  0
 27  5  1  0
M  END
> <COMPOUND_ID>
DNDI1417738

$$$$

  SciTegic04051205032D

 28 31  0  0  0  0            999 V2000
    9.8363   -7.6897    0.0000 C   0  0
    9.1310   -8.1103    0.0000 N   0  0
    8.4169   -7.6897    0.0000 C   0  0
    9.8363   -6.8705    0.0000 N   0  0
    8.4169   -6.8618    0.0000 N   0  0
   10.5197   -8.0884    0.0000 N   0  0
    7.7248   -8.0840    0.0000 N   0  0
   10.5285   -8.9251    0.0000 C   0  0
    7.0502   -7.6810    0.0000 C   0  0
   11.2469   -9.3325    0.0000 C   0  0
   11.3389  -10.1517    0.0000 O   0  0
   10.3927   -6.3142    0.0000 C   0  0
    9.8057   -9.3456    0.0000 O   0  0
    7.0502   -6.8925    0.0000 O   0  0
   12.0004   -8.9864    0.0000 C   0  0
    6.3668   -8.0709    0.0000 C   0  0
   12.1493  -10.3313    0.0000 C   0  0
   12.5698   -9.6041    0.0000 C   0  0
   11.1593   -6.5245    0.0000 C   0  0
   10.1911   -5.5607    0.0000 C   0  0
    5.6834   -7.6810    0.0000 C   0  0
    6.3668   -8.8594    0.0000 C   0  0
   11.7200   -5.9813    0.0000 C   0  0
   10.7519   -5.0000    0.0000 C   0  0
    5.0000   -8.0709    0.0000 C   0  0
    5.6834   -9.2449    0.0000 C   0  0
   11.5185   -5.2103    0.0000 C   0  0
    5.0000   -8.8594    0.0000 C   0  0
  2  1  2  0
  3  2  1  0
  4  1  1  0
  5  4  1  0
  6  1  1  0
  7  3  1  0
  8  6  1  0
  9  7  1  0
 10  8  1  0
 11 10  1  0
 12  4  1  0
 13  8  2  0
 14  9  2  0
 15 10  2  0
 16  9  1  0
 17 11  1  0
 18 15  1  0
 19 12  2  0
 20 12  1  0
 21 16  2  0
 22 16  1  0
 23 19  1  0
 24 20  2  0
 25 21  1  0
 26 22  2  0
 27 24  1  0
 28 26  1  0
  3  5  2  0
 17 18  2  0
 27 23  2  0
 28 25  2  0
M  END
> <COMPOUND_ID>
DNDI1417739

$$$$

  SciTegic04051205032D

 27 30  0  0  0  0            999 V2000
   11.3136   -6.6222    0.0000 C   0  0
   12.0834   -6.3025    0.0000 N   0  0
   10.6125   -6.2132    0.0000 N   0  0
   12.6471   -6.9384    0.0000 C   0  0
    9.9148   -6.6222    0.0000 C   0  0
   11.3961   -7.4436    0.0000 S   0  0
   12.2038   -7.6292    0.0000 C   0  0
    9.1827   -6.2304    0.0000 C   0  0
    9.9148   -7.4436    0.0000 O   0  0
   13.4823   -6.9384    0.0000 C   0  0
   15.1526   -6.9797    0.0000 N   0  0
    7.1790   -5.0310    0.0000 O   0  0
    8.4782   -6.6428    0.0000 C   0  0
    9.1621   -5.3815    0.0000 C   0  0
    7.7599   -5.4021    0.0000 C   0  0
    7.7599   -6.2510    0.0000 C   0  0
    8.4885   -5.0000    0.0000 C   0  0
    6.4401   -5.4399    0.0000 C   0  0
   14.6955   -7.6911    0.0000 C   0  0
   14.7367   -6.2407    0.0000 C   0  0
   13.8706   -7.6808    0.0000 C   0  0
   13.8912   -6.2407    0.0000 C   0  0
    6.4401   -6.2716    0.0000 C   0  0
    5.7217   -5.0000    0.0000 C   0  0
    5.0000   -5.4124    0.0000 C   0  0
    5.7046   -6.6600    0.0000 C   0  0
    5.0000   -6.2716    0.0000 C   0  0
  2  1  2  0
  3  1  1  0
  4  2  1  0
  5  3  1  0
  6  1  1  0
  7  6  1  0
  8  5  1  0
  9  5  2  0
 10  4  1  0
 11 20  1  0
 12 15  1  0
 13  8  2  0
 14  8  1  0
 15 17  1  0
 16 13  1  0
 17 14  2  0
 18 12  1  0
 19 21  1  0
 20 22  2  0
 21 10  2  0
 22 10  1  0
 23 18  1  0
 24 18  2  0
 25 24  1  0
 26 23  2  0
 27 25  2  0
  7  4  2  0
 16 15  2  0
 19 11  2  0
 27 26  1  0
M  END
> <COMPOUND_ID>
DNDI1417740

$$$$

  SciTegic04051205032D

 28 31  0  0  0  0            999 V2000
    7.7007   -9.9346    0.0000 C   0  0
    7.2048   -9.2719    0.0000 N   0  0
    7.2173  -10.6015    0.0000 N   0  0
    6.4296  -10.3514    0.0000 C   0  0
    6.4296   -9.5345    0.0000 C   0  0
    8.5301   -9.9346    0.0000 N   0  0
    7.4549   -8.4842    0.0000 C   0  0
    7.4799  -11.3892    0.0000 C   0  0
    8.2676   -8.3008    0.0000 C   0  0
    9.3179   -7.3381    0.0000 O   0  0
    8.5176   -7.5214    0.0000 C   0  0
    6.9297  -12.0018    0.0000 C   0  0
    9.5679   -6.5712    0.0000 C   0  0
    5.7044   -9.1219    0.0000 C   0  0
    5.7044  -10.7723    0.0000 C   0  0
    8.8177   -8.9218    0.0000 O   0  0
    6.1170  -11.8351    0.0000 C   0  0
    7.1881  -12.7853    0.0000 C   0  0
    9.0178   -5.9627    0.0000 C   0  0
   10.3806   -6.4003    0.0000 C   0  0
    5.0000   -9.5345    0.0000 C   0  0
    5.0000  -10.3639    0.0000 C   0  0
   10.6307   -5.6126    0.0000 C   0  0
    5.5669  -12.4519    0.0000 C   0  0
    6.6504  -13.4022    0.0000 C   0  0
    9.2678   -5.1833    0.0000 C   0  0
   10.0806   -5.0000    0.0000 C   0  0
    5.8377  -13.2355    0.0000 C   0  0
  2  1  1  0
  3  1  1  0
  4  3  1  0
  5  2  1  0
  6  1  2  0
  7  2  1  0
  8  3  1  0
  9  7  1  0
 10 11  1  0
 11  9  1  0
 12  8  1  0
 13 10  1  0
 14  5  2  0
 15  4  2  0
 16  9  1  0
 17 12  2  0
 18 12  1  0
 19 13  1  0
 20 13  2  0
 21 14  1  0
 22 15  1  0
 23 20  1  0
 24 17  1  0
 25 18  2  0
 26 19  2  0
 27 23  2  0
 28 25  1  0
  4  5  1  0
 22 21  2  0
 28 24  2  0
 27 26  1  0
M  END
> <COMPOUND_ID>
DNDI1417741

$$$$

  SciTegic04051205032D

 28 31  0  0  0  0            999 V2000
   11.8149   -6.4290    0.0000 C   0  0
   10.8856   -7.5181    0.0000 N   0  0
   10.2311   -6.9885    0.0000 C   0  0
   11.1704   -5.8993    0.0000 C   0  0
   10.3760   -6.1892    0.0000 C   0  0
   11.6701   -7.2433    0.0000 C   0  0
    9.4317   -7.2583    0.0000 C   0  0
    9.7165   -5.6445    0.0000 C   0  0
    6.5388   -6.8136    0.0000 C   0  0
   12.6144   -6.1442    0.0000 C   0  0
    8.0128   -7.0285    0.0000 N   0  0
    7.3732   -6.4989    0.0000 C   0  0
    5.8993   -6.2840    0.0000 C   0  0
   12.3296   -7.7579    0.0000 C   0  0
    8.7872   -6.7437    0.0000 C   0  0
   11.3002   -5.2048    0.0000 N   0  0
   13.2589   -6.6737    0.0000 C   0  0
    8.9121   -5.9293    0.0000 C   0  0
   13.1139   -7.4881    0.0000 C   0  0
    6.0592   -5.5296    0.0000 O   0  0
   14.0482   -6.4440    0.0000 O   0  0
    6.4139   -7.6480    0.0000 C   0  0
    5.1949   -6.5588    0.0000 C   0  0
   14.5929   -6.9036    0.0000 C   0  0
    5.3547   -5.0000    0.0000 C   0  0
   15.4173   -6.6737    0.0000 C   0  0
    5.6145   -7.9028    0.0000 C   0  0
    5.0000   -7.3433    0.0000 C   0  0
  2  6  2  0
  3  2  1  0
  4  1  2  0
  5  4  1  0
  6  1  1  0
  7  3  1  0
  8  5  1  0
  9 12  1  0
 10  1  1  0
 11 15  1  0
 12 11  1  0
 13  9  1  0
 14  6  1  0
 15  7  2  0
 16  4  1  0
 17 10  2  0
 18  8  2  0
 19 14  2  0
 20 13  1  0
 21 17  1  0
 22  9  2  0
 23 13  2  0
 24 21  1  0
 25 20  1  0
 26 24  1  0
 27 22  1  0
 28 27  2  0
  5  3  2  0
 17 19  1  0
 18 15  1  0
 28 23  1  0
M  END
> <COMPOUND_ID>
DNDI1417742

$$$$

  SciTegic04051205032D

 28 31  0  0  0  0            999 V2000
    8.8151   -7.1626    0.0000 N   0  3
    9.2984   -7.8209    0.0000 C   0  0
    8.0276   -8.2376    0.0000 C   0  0
    8.0359   -7.4126    0.0000 C   0  0
    8.8151   -8.4876    0.0000 C   0  0
   11.3651   -7.1126    0.0000 C   0  0
   12.6651   -7.3876    0.0000 N   0  0
   11.9276   -7.7209    0.0000 C   0  0
   10.1276   -7.8209    0.0000 C   0  0
   10.5359   -7.1126    0.0000 C   0  0
   11.7776   -6.3875    0.0000 C   0  0
    7.3150   -8.6501    0.0000 C   0  0
   12.5859   -6.5708    0.0000 C   0  0
    6.5983   -8.2376    0.0000 C   0  0
    5.8858   -8.6501    0.0000 C   0  0
    7.3150   -7.0001    0.0000 C   0  0
    6.6025   -7.4209    0.0000 C   0  0
    5.8775   -9.4834    0.0000 O   0  0
    9.0651   -6.3708    0.0000 C   0  0
    5.1650   -8.2334    0.0000 O   0  0
    9.5151   -8.9334    0.0000 C   0  0
    8.5526   -9.2834    0.0000 C   0  0
   11.7526   -8.5251    0.0000 C   0  0
   11.5276   -5.6125    0.0000 C   0  0
   13.1359   -5.9500    0.0000 C   0  0
    5.1775   -7.4126    0.0000 C   0  0
   12.0776   -5.0000    0.0000 C   0  0
   12.8859   -5.1708    0.0000 C   0  0
  2  1  2  0
  3  4  2  0
  4  1  1  0
  5  2  1  0
  6 10  1  0
  7  8  1  0
  8  6  2  0
  9  2  1  0
 10  9  2  0
 11  6  1  0
 12  3  1  0
 13 11  2  0
 14 17  1  0
 15 14  1  0
 16  4  1  0
 17 16  2  0
 18 15  2  0
 19  1  1  0
 20 15  1  0
 21  5  1  0
 22  5  1  0
 23  8  1  0
 24 11  1  0
 25 13  1  0
 26 20  1  0
 27 24  2  0
 28 27  1  0
  5  3  1  0
 12 14  2  0
 13  7  1  0
 28 25  2  0
M  CHG  1   1   1
M  END
> <COMPOUND_ID>
DNDI1417743

$$$$

  SciTegic04051205032D

 27 30  0  0  0  0            999 V2000
    8.5676   -7.0811    0.0000 C   0  0
    9.2674   -7.4836    0.0000 C   0  0
    7.8541   -7.4836    0.0000 C   0  0
    9.9946   -7.0811    0.0000 C   0  0
    7.8541   -8.3069    0.0000 N   0  0
    8.5676   -6.2441    0.0000 C   0  0
    7.1406   -8.7277    0.0000 C   0  0
    7.1406   -7.0811    0.0000 C   0  0
   10.7081   -7.4836    0.0000 N   0  0
    7.1406   -9.5372    0.0000 N   0  0
    9.9946   -6.2441    0.0000 C   0  0
    9.2674   -5.8233    0.0000 C   0  0
    6.4270   -7.4836    0.0000 C   0  0
    7.1406   -6.2578    0.0000 C   0  0
    9.2674   -8.3069    0.0000 O   0  0
    5.7135   -6.2578    0.0000 C   0  0
    5.0000   -5.8233    0.0000 S   0  0
    5.7135   -7.0811    0.0000 C   0  0
    6.4270   -5.8371    0.0000 C   0  0
   11.4217   -7.0811    0.0000 C   0  0
    6.4270   -9.9535    0.0000 C   0  0
    6.4270   -8.3069    0.0000 C   0  0
   10.7081   -5.8233    0.0000 C   0  0
    5.0000   -5.0000    0.0000 C   0  0
   11.4217   -6.2441    0.0000 C   0  0
    5.7135   -9.5510    0.0000 C   0  0
    5.7135   -8.7277    0.0000 C   0  0
  2  1  2  0
  3  1  1  0
  4  2  1  0
  5  3  1  0
  6  1  1  0
  7  5  1  0
  8  3  1  0
  9  4  2  0
 10  7  2  0
 11 12  1  0
 12  6  2  0
 13  8  2  0
 14  8  1  0
 15  2  1  0
 16 19  1  0
 17 16  1  0
 18 13  1  0
 19 14  2  0
 20  9  1  0
 21 10  1  0
 22  7  1  0
 23 11  2  0
 24 17  1  0
 25 23  1  0
 26 27  1  0
 27 22  2  0
  4 11  1  0
 16 18  2  0
 20 25  2  0
 26 21  2  0
M  END
> <COMPOUND_ID>
DNDI1417744

$$$$

  SciTegic04051205032D

 27 29  0  0  0  0            999 V2000
   10.7272   -7.0800    0.0000 N   0  0
    6.4234   -5.4218    0.0000 C   0  0
    9.9987   -6.6679    0.0000 C   0  0
    7.1375   -6.6630    0.0000 C   0  0
    7.1375   -5.8388    0.0000 C   0  0
    5.7189   -5.8388    0.0000 C   0  0
    7.8564   -7.0753    0.0000 O   0  0
    5.7189   -6.6630    0.0000 C   0  0
    9.2942   -7.0753    0.0000 C   0  0
   10.7176   -7.9092    0.0000 C   0  0
   11.4461   -6.6679    0.0000 C   0  0
    6.4234   -7.0753    0.0000 C   0  0
    8.5705   -6.6679    0.0000 C   0  0
   12.8551   -8.3309    0.0000 C   0  0
   12.1459   -7.9092    0.0000 C   0  0
   13.5693   -7.9188    0.0000 C   0  0
   12.1554   -7.0800    0.0000 C   0  0
   11.4317   -8.3214    0.0000 C   0  0
    9.2847   -7.9092    0.0000 O   0  0
    5.7189   -5.0000    0.0000 C   0  0
    7.1375   -5.0000    0.0000 C   0  0
    5.0000   -7.0753    0.0000 C   0  0
   13.5693   -7.0944    0.0000 C   0  0
   14.2785   -8.3309    0.0000 C   0  0
   14.9927   -7.9188    0.0000 C   0  0
   14.2785   -6.6823    0.0000 C   0  0
   14.9927   -7.0944    0.0000 C   0  0
  2  5  1  0
  3  1  1  0
  4  7  1  0
  5  4  1  0
  6  8  1  0
  7 13  1  0
  8 12  1  0
  9  3  1  0
 10  1  1  0
 11  1  1  0
 12  4  1  0
 13  9  1  0
 14 15  1  0
 15 18  1  0
 16 14  1  0
 17 11  1  0
 18 10  1  0
 19  9  1  0
 20  2  1  0
 21  2  1  0
 22  8  1  0
 23 16  1  0
 24 16  2  0
 25 24  1  0
 26 23  2  0
 27 26  1  0
 17 15  1  0
 27 25  2  0
  6  2  1  0
M  END
> <COMPOUND_ID>
DNDI1417745

$$$$

  SciTegic04051205032D

 27 30  0  0  0  0            999 V2000
    9.7526   -7.7567    0.0000 C   0  0
   10.4168   -8.2240    0.0000 N   0  0
   10.7906   -6.9858    0.0000 N   0  0
    9.9863   -6.9858    0.0000 C   0  0
   11.0943   -7.7567    0.0000 C   0  0
    8.9349   -7.9870    0.0000 N   0  0
   10.5236   -9.0617    0.0000 C   0  0
   11.8552   -8.0605    0.0000 C   0  0
    8.7580   -8.7947    0.0000 C   0  0
   11.2945   -9.3655    0.0000 C   0  0
   11.9587   -8.8781    0.0000 C   0  0
    7.9770   -9.0050    0.0000 C   0  0
    9.4389   -6.3884    0.0000 C   0  0
    7.3930   -8.4443    0.0000 C   0  0
    9.3455   -9.3454    0.0000 O   0  0
   11.3780  -10.2098    0.0000 Cl  0  0
    6.5986   -8.6646    0.0000 C   0  0
    8.6412   -6.5752    0.0000 C   0  0
    9.7059   -5.6074    0.0000 C   0  0
    6.0146   -8.1172    0.0000 C   0  0
    6.4118   -9.4822    0.0000 C   0  0
    9.1218   -5.0000    0.0000 C   0  0
    8.0605   -5.9545    0.0000 C   0  0
    5.2103   -8.3174    0.0000 C   0  0
    5.6074   -9.7059    0.0000 C   0  0
    8.3275   -5.1735    0.0000 C   0  0
    5.0000   -9.1218    0.0000 C   0  0
  2  1  1  0
  3  4  1  0
  4  1  2  0
  5  2  1  0
  6  1  1  0
  7  2  1  0
  8  5  1  0
  9  6  1  0
 10  7  2  0
 11  8  2  0
 12  9  1  0
 13  4  1  0
 14 12  2  0
 15  9  2  0
 16 10  1  0
 17 14  1  0
 18 13  1  0
 19 13  2  0
 20 17  2  0
 21 17  1  0
 22 19  1  0
 23 18  2  0
 24 20  1  0
 25 21  2  0
 26 23  1  0
 27 25  1  0
  5  3  2  0
 11 10  1  0
 26 22  2  0
 27 24  2  0
M  END
> <COMPOUND_ID>
DNDI1417746

$$$$

  SciTegic04051205032D

 26 28  0  0  0  0            999 V2000
    9.9697   -7.1227    0.0000 N   0  0
    9.1331   -7.1227    0.0000 C   0  0
   10.3610   -6.4193    0.0000 C   0  0
   10.3818   -7.8345    0.0000 C   0  0
    8.7128   -7.8345    0.0000 C   0  0
    5.4370  -10.7189    0.0000 C   0  0
   12.4421   -7.1227    0.0000 C   0  0
    7.4766   -8.5462    0.0000 O   0  0
    6.2487   -9.2704    0.0000 C   0  0
    5.0624  -11.4681    0.0000 Cl  0  0
   11.6222   -7.1227    0.0000 C   0  0
    6.2487  -10.6939    0.0000 C   0  0
    5.0000   -9.9822    0.0000 C   0  0
    6.6607   -9.9822    0.0000 C   0  0
    5.4163   -9.2704    0.0000 C   0  0
   12.8541   -6.4235    0.0000 C   0  0
   11.2184   -7.8345    0.0000 C   0  0
   11.1934   -6.4193    0.0000 C   0  0
    9.1498   -8.5462    0.0000 O   0  0
    7.8886   -7.8345    0.0000 C   0  0
    6.6607   -8.5462    0.0000 C   0  0
   12.4421   -5.7242    0.0000 C   0  0
   13.6783   -6.4235    0.0000 C   0  0
   12.8541   -5.0000    0.0000 C   0  0
   14.0903   -5.7075    0.0000 C   0  0
   13.6575   -5.0000    0.0000 C   0  0
  2  1  1  0
  3  1  1  0
  4  1  1  0
  5  2  1  0
  6 13  2  0
  7 11  1  0
  8 20  1  0
  9 21  1  0
 10  6  1  0
 11 17  1  0
 12 14  2  0
 13 15  1  0
 14  9  1  0
 15  9  2  0
 16  7  1  0
 17  4  1  0
 18  3  1  0
 19  5  1  0
 20  5  1  0
 21  8  1  0
 22 16  1  0
 23 16  2  0
 24 22  2  0
 25 23  1  0
 26 25  2  0
 11 18  1  0
 26 24  1  0
  6 12  1  0
M  END
> <COMPOUND_ID>
DNDI1417747

$$$$

  SciTegic04051205032D

 23 25  0  0  0  0            999 V2000
    7.7004   -7.1814    0.0000 C   0  0
    7.2153   -6.5062    0.0000 N   0  0
    7.2153   -7.8463    0.0000 N   0  0
    6.4248   -6.7607    0.0000 C   0  0
    6.4248   -7.5885    0.0000 C   0  0
    8.5248   -7.1814    0.0000 N   0  0
    7.4664   -5.7158    0.0000 C   0  0
    7.4664   -8.6231    0.0000 C   0  0
   10.9436  -10.1125    0.0000 C   0  0
    5.7158   -6.3536    0.0000 C   0  0
    9.3322   -9.7732    0.0000 C   0  0
   11.7409  -10.3262    0.0000 Br  0  0
    5.7158   -7.9956    0.0000 C   0  0
   10.6960   -9.3322    0.0000 C   0  0
   10.3907  -10.7231    0.0000 C   0  0
    9.8987   -9.1524    0.0000 C   0  0
    9.5833  -10.5501    0.0000 C   0  0
    8.5248   -9.5934    0.0000 O   0  0
    8.2704   -8.8030    0.0000 C   0  0
    8.2704   -5.5394    0.0000 C   0  0
    7.0491   -5.0000    0.0000 C   0  0
    5.0000   -6.7607    0.0000 C   0  0
    5.0000   -7.5885    0.0000 C   0  0
  2  1  1  0
  3  1  1  0
  4  2  1  0
  5  3  1  0
  6  1  2  0
  7  2  1  0
  8  3  1  0
  9 15  2  0
 10  4  1  0
 11 18  1  0
 12  9  1  0
 13  5  1  0
 14 16  2  0
 15 17  1  0
 16 11  1  0
 17 11  2  0
 18 19  1  0
 19  8  1  0
 20  7  1  0
 21  7  1  0
 22 10  2  0
 23 13  2  0
  4  5  2  0
 22 23  1  0
  9 14  1  0
M  END
> <COMPOUND_ID>
DNDI1417748

$$$$

  SciTegic04051205032D

 22 25  0  0  0  0            999 V2000
    7.5399   -7.9314    0.0000 C   0  0
    8.3751   -7.9176    0.0000 C   0  0
    7.5301   -7.0766    0.0000 C   0  0
    6.6890   -7.9314    0.0000 C   0  0
    8.9466   -7.3097    0.0000 S   0  0
    6.9192   -6.5247    0.0000 S   0  0
    7.2566   -5.7554    0.0000 C   0  0
    9.7110   -7.6481    0.0000 C   0  0
    8.8000   -8.6426    0.0000 C   0  0
    8.2482   -6.6516    0.0000 C   0  0
    5.4270   -8.6495    0.0000 N   0  0
    6.2581   -8.6554    0.0000 C   0  0
    9.6175   -8.4744    0.0000 C   0  0
    8.0760   -5.8351    0.0000 C   0  0
    6.2581   -7.2025    0.0000 C   0  0
    7.5390   -8.7764    0.0000 O   0  0
    5.4270   -7.1946    0.0000 C   0  0
    5.6365   -7.7996    0.0000 C   0  0
    5.0000   -7.9265    0.0000 C   0  0
    6.0191   -8.1773    0.0000 C   0  0
    6.8553   -5.0000    0.0000 Cl  0  0
   10.4664   -7.2467    0.0000 Cl  0  0
  2  1  1  0
  3  1  1  0
  4  1  1  0
  5  2  1  0
  6  3  1  0
  7  6  1  0
  8  5  1  0
  9  2  2  0
 10  3  2  0
 11 12  1  0
 12  4  1  0
 13  9  1  0
 14 10  1  0
 15  4  1  0
 16  1  1  0
 17 15  1  0
 18 15  1  0
 19 17  1  0
 20 18  1  0
 21  7  1  0
 22  8  1  0
  7 14  2  0
  8 13  2  0
 11 20  1  0
 11 19  1  0
M  END
> <COMPOUND_ID>
DNDI1417749

$$$$

  SciTegic04051205032D

 27 30  0  0  0  0            999 V2000
    7.7320  -10.5838    0.0000 C   0  0
    6.9190  -10.5838    0.0000 C   0  0
    6.6425  -11.3225    0.0000 C   0  0
    7.9920  -11.3762    0.0000 C   0  0
    7.2987  -11.8343    0.0000 S   0  0
    8.3057   -9.9895    0.0000 C   0  0
    8.7844  -11.5578    0.0000 N   0  0
    9.0981  -10.1711    0.0000 N   0  0
    9.0362   -7.2162    0.0000 C   0  0
    6.4444   -9.9359    0.0000 C   0  0
    8.6648   -8.5863    0.0000 N   0  0
    9.3581  -10.9429    0.0000 C   0  0
    9.8286   -7.4391    0.0000 C   0  0
    8.0911   -9.1806    0.0000 N   0  0
    8.8215   -6.4073    0.0000 C   0  0
    8.4419   -7.7940    0.0000 C   0  0
    5.6190  -10.0019    0.0000 C   0  0
    6.7705   -9.1930    0.0000 C   0  0
   10.4228   -6.8448    0.0000 C   0  0
    9.4324   -5.8296    0.0000 C   0  0
   10.2082   -6.0524    0.0000 C   0  0
    6.3082   -8.5162    0.0000 C   0  0
    5.1486   -9.3457    0.0000 C   0  0
    5.4952   -8.5863    0.0000 C   0  0
   10.0514   -8.2315    0.0000 O   0  0
    9.2590   -5.0000    0.0000 C   0  0
    5.0000   -7.8724    0.0000 C   0  0
  2  1  1  0
  3  2  2  0
  4  1  2  0
  5  4  1  0
  6  1  1  0
  7  4  1  0
  8  6  2  0
  9 16  1  0
 10  2  1  0
 11 14  1  0
 12  8  1  0
 13  9  2  0
 14  6  1  0
 15  9  1  0
 16 11  2  0
 17 10  1  0
 18 10  2  0
 19 13  1  0
 20 15  2  0
 21 20  1  0
 22 18  1  0
 23 17  2  0
 24 22  2  0
 25 13  1  0
 26 20  1  0
 27 24  1  0
  3  5  1  0
 12  7  2  0
 24 23  1  0
 19 21  2  0
M  END
> <COMPOUND_ID>
DNDI1417750

$$$$

  SciTegic04051205032D

 28 31  0  0  0  0            999 V2000
   11.3668   -6.2303    0.0000 N   0  0
   11.3668   -7.0761    0.0000 C   0  0
    9.9365   -6.2572    0.0000 C   0  0
   10.6516   -5.8266    0.0000 C   0  0
    9.9365   -7.0761    0.0000 C   0  0
    9.1714   -7.3299    0.0000 N   0  0
    8.6639   -6.6917    0.0000 C   0  0
    9.1522   -5.9996    0.0000 C   0  0
   10.6516   -7.4914    0.0000 C   0  0
   12.1587   -7.3184    0.0000 C   0  0
   12.1395   -5.9804    0.0000 C   0  0
   12.6470   -6.6263    0.0000 C   0  0
    7.8335   -6.6917    0.0000 C   0  0
    7.4529   -5.9996    0.0000 O   0  0
    7.4452   -7.4914    0.0000 O   0  0
   10.6516   -5.0000    0.0000 C   0  0
    8.9100   -5.2192    0.0000 C   0  0
   13.4621   -6.6263    0.0000 C   0  0
    6.6339   -5.9996    0.0000 C   0  0
   12.4048   -8.1027    0.0000 C   0  0
   12.3702   -5.2076    0.0000 C   0  0
    6.2226   -6.7071    0.0000 C   0  0
    5.3922   -6.7301    0.0000 C   0  0
    6.6339   -7.4222    0.0000 C   0  0
   13.8773   -5.9189    0.0000 C   0  0
    5.0000   -7.4452    0.0000 C   0  0
    6.2341   -8.1373    0.0000 C   0  0
    5.4152   -8.1680    0.0000 C   0  0
  2  1  1  0
  3  4  2  0
  4  1  1  0
  5  3  1  0
  6  5  2  0
  7  8  2  0
  8  3  1  0
  9  2  2  0
 10  2  1  0
 11  1  1  0
 12 11  1  0
 13  7  1  0
 14 13  1  0
 15 13  2  0
 16  4  1  0
 17  8  1  0
 18 12  1  0
 19 14  1  0
 20 10  1  0
 21 11  1  0
 22 19  1  0
 23 22  2  0
 24 22  1  0
 25 18  1  0
 26 23  1  0
 27 24  2  0
 28 27  1  0
 12 10  2  0
  9  5  1  0
  6  7  1  0
 28 26  2  0
M  END
> <COMPOUND_ID>
DNDI1417751

$$$$

  SciTegic04051205032D

 26 29  0  0  0  0            999 V2000
   11.4562   -6.3579    0.0000 N   0  0
    7.1830   -6.2411    0.0000 C   0  0
   12.1506   -6.8668    0.0000 C   0  0
    7.6849   -5.5466    0.0000 C   0  0
    8.4996   -6.6708    0.0000 N   0  0
    7.6849   -6.9355    0.0000 O   0  0
   11.0264   -7.6815    0.0000 C   0  0
    6.3201   -6.2411    0.0000 C   0  0
   11.4562   -5.5019    0.0000 C   0  0
    8.4996   -5.8148    0.0000 C   0  0
   10.7618   -6.8668    0.0000 C   0  0
    5.8181   -6.9355    0.0000 S   0  0
   11.8859   -7.6815    0.0000 C   0  0
   12.1025   -7.9806    0.0000 C   0  0
   12.3947   -7.4305    0.0000 C   0  0
   11.4940   -8.0872    0.0000 C   0  0
    5.8181   -5.5466    0.0000 C   0  0
    5.0000   -6.6708    0.0000 C   0  0
   12.1506   -5.0000    0.0000 O   0  0
    5.0000   -5.8148    0.0000 C   0  0
    9.9779   -5.6601    0.0000 O   0  0
   10.6758   -5.1547    0.0000 C   0  0
   10.2289   -7.9875    0.0000 C   0  0
    9.1941   -5.3060    0.0000 C   0  0
   12.9517   -8.1112    0.0000 C   0  0
   11.3565   -8.4000    0.0000 C   0  0
  2  4  2  0
  3  1  1  0
  4 10  1  0
  5 10  2  0
  6  5  1  0
  7 11  1  0
  8  2  1  0
  9  1  1  0
 10 24  1  0
 11  1  1  0
 12  8  1  0
 13  3  1  0
 14 15  1  0
 15  3  1  0
 16  7  1  0
 17  8  2  0
 18 12  1  0
 19  9  2  0
 20 17  1  0
 21 22  1  0
 22  9  1  0
 23  7  1  0
 24 21  1  0
 25 14  1  0
 26 14  1  0
 13  7  1  0
 14 16  1  0
  6  2  1  0
 20 18  2  0
M  END
> <COMPOUND_ID>
DNDI1417752

$$$$

  SciTegic04051205032D

 25 27  0  0  0  0            999 V2000
    8.8712   -8.2170    0.0000 N   0  0
    8.1728   -8.6550    0.0000 C   0  0
    9.4992   -8.7448    0.0000 C   0  0
    9.1984   -9.4994    0.0000 N   0  0
   10.3102   -8.5530    0.0000 C   0  0
    8.3839   -9.4519    0.0000 S   0  0
   10.5477   -7.7579    0.0000 C   0  0
    7.3777   -8.4387    0.0000 N   0  0
    6.1533   -6.6320    0.0000 C   0  0
    6.3644   -7.4201    0.0000 C   0  0
   11.3569   -7.5714    0.0000 N   0  0
    7.1648   -7.6418    0.0000 C   0  0
    6.7391   -6.0427    0.0000 C   0  0
    7.5395   -6.2590    0.0000 C   0  0
   11.9163   -8.1836    0.0000 C   0  0
    5.3300   -6.6320    0.0000 Cl  0  0
    7.7524   -7.0595    0.0000 C   0  0
    6.5227   -5.2475    0.0000 F   0  0
   13.0387   -9.3939    0.0000 C   0  0
   11.6683   -8.9699    0.0000 C   0  0
   12.7185   -7.9953    0.0000 C   0  0
   13.2779   -8.6023    0.0000 C   0  0
   12.2312   -9.5768    0.0000 C   0  0
    9.9935   -7.1562    0.0000 C   0  0
   13.5928  -10.0008    0.0000 C   0  0
  2  1  2  0
  3  1  1  0
  4  3  2  0
  5  3  1  0
  6  2  1  0
  7  5  2  0
  8  2  1  0
  9 10  2  0
 10 12  1  0
 11  7  1  0
 12  8  1  0
 13 14  2  0
 14 17  1  0
 15 11  1  0
 16  9  1  0
 17 12  2  0
 18 13  1  0
 19 22  1  0
 20 15  2  0
 21 15  1  0
 22 21  2  0
 23 20  1  0
 24  7  1  0
 25 19  1  0
  4  6  1  0
  9 13  1  0
 19 23  2  0
M  END
> <COMPOUND_ID>
DNDI1417753

$$$$

  SciTegic04051205032D

 25 27  0  0  0  0            999 V2000
    7.8248   -7.0522    0.0000 C   0  0
    8.5443   -7.4578    0.0000 C   0  0
    7.1101   -7.4627    0.0000 C   0  0
    9.2445   -7.0522    0.0000 C   0  0
    7.8248   -6.2265    0.0000 C   0  0
    9.2445   -6.2265    0.0000 C   0  0
    8.5443   -5.8209    0.0000 C   0  0
    6.4003   -7.0571    0.0000 C   0  0
    7.1101   -8.2884    0.0000 N   0  0
    5.6374   -7.3999    0.0000 S   0  0
    6.4148   -8.7085    0.0000 C   0  0
    9.9543   -7.4627    0.0000 N   0  0
    6.3038   -6.2265    0.0000 C   0  0
    5.0821   -6.7674    0.0000 C   0  0
    5.4877   -6.0671    0.0000 C   0  0
    5.6953   -8.3029    0.0000 O   0  0
    8.5443   -8.2739    0.0000 O   0  0
    8.5443   -5.0000    0.0000 Cl  0  0
    9.9543   -5.8209    0.0000 C   0  0
    6.4148   -9.5439    0.0000 C   0  0
   10.6787   -7.0522    0.0000 C   0  0
    5.6953   -9.9544    0.0000 C   0  0
   10.6787   -6.2265    0.0000 C   0  0
    5.7050  -10.7946    0.0000 C   0  0
    5.0000  -11.2243    0.0000 C   0  0
  2  1  2  0
  3  1  1  0
  4  2  1  0
  5  1  1  0
  6  7  1  0
  7  5  2  0
  8  3  1  0
  9  3  1  0
 10  8  1  0
 11  9  1  0
 12  4  2  0
 13  8  2  0
 14 10  1  0
 15 13  1  0
 16 11  2  0
 17  2  1  0
 18  7  1  0
 19  6  2  0
 20 11  1  0
 21 12  1  0
 22 20  1  0
 23 19  1  0
 24 22  1  0
 25 24  1  0
  4  6  1  0
 14 15  2  0
 23 21  2  0
M  END
> <COMPOUND_ID>
DNDI1417754

$$$$

  SciTegic04051205032D

 25 28  0  0  0  0            999 V2000
    7.8727   -6.6475    0.0000 S   0  0
    9.2879   -9.1188    0.0000 C   0  0
    8.5768   -9.5202    0.0000 C   0  0
    9.5553  -10.4002    0.0000 C   0  0
    8.5768   -7.0558    0.0000 N   0  0
    9.9004   -9.6609    0.0000 S   0  0
    8.5768   -7.8655    0.0000 C   0  0
    8.7458  -10.3017    0.0000 O   0  0
    7.8727   -9.0835    0.0000 C   0  0
    9.2879   -8.2739    0.0000 C   0  0
    7.8727   -8.2739    0.0000 C   0  0
    7.1263   -6.2109    0.0000 C   0  0
    7.4291   -7.3586    0.0000 O   0  0
    8.2740   -5.9082    0.0000 O   0  0
    9.9989  -11.1466    0.0000 O   0  0
    7.1263   -5.4013    0.0000 C   0  0
    6.4152   -6.6193    0.0000 C   0  0
    5.7041   -5.4013    0.0000 C   0  0
    5.7041   -6.2109    0.0000 C   0  0
    6.4152   -5.0000    0.0000 C   0  0
    5.0000   -5.0000    0.0000 F   0  0
    7.1405   -9.4920    0.0000 C   0  0
    7.1616   -7.8162    0.0000 C   0  0
    6.4081   -9.0273    0.0000 C   0  0
    6.4504   -8.2175    0.0000 C   0  0
  2 10  2  0
  3  2  1  0
  4  6  1  0
  5  1  1  0
  6  2  1  0
  7  5  1  0
  8  3  1  0
  9 11  1  0
 10  7  1  0
 11  7  2  0
 12  1  1  0
 13  1  2  0
 14  1  2  0
 15  4  2  0
 16 12  1  0
 17 12  2  0
 18 19  2  0
 19 17  1  0
 20 16  2  0
 21 18  1  0
 22  9  1  0
 23 11  1  0
 24 25  1  0
 25 23  2  0
 18 20  1  0
  3  9  2  0
  4  8  1  0
 24 22  2  0
M  END
> <COMPOUND_ID>
DNDI1417755

$$$$

  SciTegic04051205032D

 28 31  0  0  0  0            999 V2000
    7.2091   -7.5764    0.0000 N   0  0
    7.6926   -8.2418    0.0000 C   0  0
    7.2091   -8.9034    0.0000 N   0  0
    6.4315   -7.8240    0.0000 C   0  0
    6.4315   -8.6558    0.0000 C   0  0
    7.4605   -6.7872    0.0000 C   0  0
    8.2652   -6.6131    0.0000 C   0  0
    8.5206   -8.2418    0.0000 N   0  0
    8.5206   -5.8278    0.0000 C   0  0
    9.3291  -10.8261    0.0000 C   0  0
    9.8862  -10.2149    0.0000 C   0  0
    7.4605   -9.6810    0.0000 C   0  0
    7.9247   -5.2475    0.0000 F   0  0
    8.5206  -10.6520    0.0000 O   0  0
    5.7119   -7.4062    0.0000 C   0  0
    5.7119   -9.0620    0.0000 C   0  0
    8.2652   -9.8628    0.0000 C   0  0
    8.8184   -7.2205    0.0000 C   0  0
    9.3175   -5.6537    0.0000 C   0  0
    9.6231   -9.4257    0.0000 C   0  0
    9.5767  -11.6076    0.0000 C   0  0
   10.6909  -10.3890    0.0000 C   0  0
    5.0000   -8.6558    0.0000 C   0  0
    5.0000   -7.8240    0.0000 C   0  0
    9.6231   -7.0464    0.0000 C   0  0
   10.9423  -11.1782    0.0000 C   0  0
   10.3852  -11.7817    0.0000 C   0  0
    9.8862   -6.2688    0.0000 C   0  0
  2  1  1  0
  3  2  1  0
  4  1  1  0
  5  4  2  0
  6  1  1  0
  7  6  1  0
  8  2  2  0
  9  7  1  0
 10 14  1  0
 11 10  1  0
 12  3  1  0
 13  9  1  0
 14 17  1  0
 15  4  1  0
 16  5  1  0
 17 12  1  0
 18  7  2  0
 19  9  2  0
 20 11  1  0
 21 10  2  0
 22 11  2  0
 23 24  1  0
 24 15  2  0
 25 18  1  0
 26 27  2  0
 27 21  1  0
 28 25  2  0
  5  3  1  0
 16 23  2  0
 19 28  1  0
 22 26  1  0
M  END
> <COMPOUND_ID>
DNDI1417756

$$$$

  SciTegic04051205032D

 26 29  0  0  0  0            999 V2000
    8.1630   -7.2885    0.0000 N   0  0
    8.5966   -7.1337    0.0000 C   0  0
    9.1324   -7.5146    0.0000 N   0  0
    8.5346   -8.3942    0.0000 N   0  0
    9.0209   -8.2146    0.0000 C   0  0
    7.5962   -7.5208    0.0000 C   0  0
    6.6052   -7.6106    0.0000 C   0  0
    6.2180   -6.5235    0.0000 O   0  0
    6.8932   -7.2060    0.0000 C   0  0
    5.3291   -6.0992    0.0000 C   0  0
    6.5112   -6.0838    0.0000 C   0  0
    5.1650   -7.0439    0.0000 O   0  0
    8.7143   -6.4575    0.0000 S   0  0
    9.4762   -8.4097    0.0000 C   0  0
    5.6967   -7.7159    0.0000 C   0  0
   11.5451   -8.9919    0.0000 C   0  0
    7.0357   -5.2475    0.0000 O   0  0
   11.6937   -9.8653    0.0000 C   0  0
   10.7460   -8.6698    0.0000 C   0  0
    9.8726   -7.1750    0.0000 C   0  0
    9.4607   -9.0074    0.0000 O   0  0
   10.9979  -10.4321    0.0000 C   0  0
   10.0275   -9.2087    0.0000 C   0  0
   10.1637  -10.0821    0.0000 C   0  0
   12.1924   -8.6853    0.0000 C   0  0
   12.2326  -10.0450    0.0000 C   0  0
  2  1  1  0
  3  2  1  0
  4  1  1  0
  5  4  2  0
  6  1  1  0
  7  6  1  0
  8  7  1  0
  9  6  1  0
 10 11  1  0
 11  9  1  0
 12 15  1  0
 13  2  2  0
 14  5  1  0
 15  7  1  0
 16 19  1  0
 17 11  2  0
 18 22  1  0
 19 23  2  0
 20  3  1  0
 21 14  1  0
 22 24  2  0
 23 21  1  0
 24 23  1  0
 25 16  1  0
 26 18  1  0
  5  3  1  0
  8 10  1  0
 10 12  1  0
 16 18  2  0
M  END
> <COMPOUND_ID>
DNDI1417757

$$$$

  SciTegic04051205032D

 27 28  0  0  0  0            999 V2000
    7.0264   -6.2951    0.0000 N   0  0
    5.7554   -6.9548    0.0000 N   0  0
    6.2064   -6.2558    0.0000 C   0  0
    6.9719   -7.7537    0.0000 N   0  0
    7.4501   -7.0517    0.0000 C   0  0
    6.1337   -7.6902    0.0000 C   0  0
   13.6477   -6.3829    0.0000 C   0  0
   12.8700   -6.1226    0.0000 C   0  0
    5.8220   -5.5144    0.0000 N   0  0
    7.4440   -5.5598    0.0000 O   0  0
   14.2953   -5.8594    0.0000 O   0  0
    5.6798   -8.3983    0.0000 N   0  0
   12.3010   -6.6915    0.0000 C   0  0
   12.6400   -5.3086    0.0000 C   0  0
    8.1128   -6.5433    0.0000 C   0  0
    8.0462   -7.6297    0.0000 C   0  0
   13.7597   -7.2151    0.0000 O   0  0
   11.8411   -5.1180    0.0000 C   0  0
   11.5021   -6.4979    0.0000 C   0  0
   11.2661   -5.7292    0.0000 C   0  0
    8.2097   -5.7201    0.0000 C   0  0
   14.5555   -7.4360    0.0000 C   0  0
   10.4793   -5.6718    0.0000 C   0  0
   10.0768   -5.0000    0.0000 C   0  0
    8.6968   -5.0332    0.0000 C   0  0
    9.3838   -5.4054    0.0000 C   0  0
   14.5949   -8.2743    0.0000 C   0  0
  2  3  2  0
  3  1  1  0
  4  5  1  0
  5  1  1  0
  6  2  1  0
  7  8  1  0
  8 13  1  0
  9  3  1  0
 10  1  1  0
 11  7  2  0
 12  6  1  0
 13 19  2  0
 14 18  1  0
 15  5  1  0
 16  5  1  0
 17  7  1  0
 18 20  2  0
 19 20  1  0
 20 23  1  0
 21 10  1  0
 22 17  1  0
 23 24  1  0
 24 26  1  0
 25 21  1  0
 26 25  1  0
 27 22  1  0
  6  4  2  0
  8 14  2  0
M  END
> <COMPOUND_ID>
DNDI1417758

$$$$

  SciTegic04051205032D

 23 25  0  0  0  0            999 V2000
    8.2099   -7.4675    0.0000 C   0  0
    8.6669   -8.0860    0.0000 C   0  0
    7.4400   -7.7149    0.0000 C   0  0
    8.2099   -8.7768    0.0000 N   0  0
    7.4400   -8.5294    0.0000 C   0  0
    9.0380   -6.7011    0.0000 C   0  0
    9.9831   -6.8764    0.0000 C   0  0
   10.4745   -6.2303    0.0000 C   0  0
    6.7356   -8.9349    0.0000 C   0  0
    6.7356   -7.3060    0.0000 C   0  0
    9.4470   -8.1514    0.0000 O   0  0
   11.2855   -6.2544    0.0000 O   0  0
   10.2442   -5.4605    0.0000 C   0  0
    7.8249   -6.6083    0.0000 O   0  0
   11.5536   -5.4949    0.0000 C   0  0
   10.2546   -7.4434    0.0000 O   0  0
   10.9178   -5.0000    0.0000 C   0  0
    8.4779   -9.5397    0.0000 C   0  0
    7.9624  -10.1514    0.0000 C   0  0
    6.0379   -7.7149    0.0000 C   0  0
    8.2339  -10.9212    0.0000 C   0  0
    6.0379   -8.5294    0.0000 C   0  0
    5.3300   -7.3060    0.0000 Br  0  0
  2  1  1  0
  3  1  1  0
  4  2  1  0
  5  3  2  0
  6  1  1  0
  7  6  1  0
  8  7  1  0
  9  5  1  0
 10  3  1  0
 11  2  2  0
 12  8  1  0
 13  8  2  0
 14  1  1  0
 15 12  1  0
 16  7  2  0
 17 13  1  0
 18  4  1  0
 19 18  1  0
 20 10  2  0
 21 19  2  0
 22 20  1  0
 23 20  1  0
  5  4  1  0
 22  9  2  0
 15 17  2  0
M  END
> <COMPOUND_ID>
DNDI1417759

$$$$

  SciTegic04051205032D

 25 27  0  0  0  0            999 V2000
    8.3029   -7.1400    0.0000 C   0  0
    9.1339   -7.1400    0.0000 C   0  0
    9.9498   -7.1400    0.0000 C   0  0
    8.3029   -7.9589    0.0000 C   0  0
   11.1918   -6.4277    0.0000 N   0  0
    7.4657   -7.1400    0.0000 C   0  0
    9.0182   -8.3638    0.0000 C   0  0
   12.0289   -5.0000    0.0000 O   0  0
    7.0609   -7.8401    0.0000 C   0  0
    7.0609   -6.4094    0.0000 C   0  0
   10.7869   -7.1400    0.0000 C   0  0
    8.3029   -6.3059    0.0000 O   0  0
    9.0182   -9.2009    0.0000 C   0  0
    5.8310   -7.1400    0.0000 C   0  0
    6.2420   -7.8401    0.0000 C   0  0
    6.2420   -6.4094    0.0000 C   0  0
    9.7275   -9.6149    0.0000 Cl  0  0
    5.0000   -7.1400    0.0000 Cl  0  0
    7.5845   -8.3820    0.0000 C   0  0
   10.7899   -5.7214    0.0000 C   0  0
   12.0137   -6.4277    0.0000 C   0  0
    7.5845   -9.2009    0.0000 C   0  0
   11.2009   -5.0030    0.0000 C   0  0
   12.4338   -5.7062    0.0000 C   0  0
    8.3029   -9.6058    0.0000 C   0  0
  2  1  1  0
  3  2  3  0
  4  1  1  0
  5 11  1  0
  6  1  1  0
  7  4  2  0
  8 24  1  0
  9  6  1  0
 10  6  2  0
 11  3  1  0
 12  1  1  0
 13  7  1  0
 14 16  2  0
 15  9  2  0
 16 10  1  0
 17 13  1  0
 18 14  1  0
 19  4  1  0
 20  5  1  0
 21  5  1  0
 22 19  2  0
 23 20  1  0
 24 21  1  0
 25 22  1  0
 14 15  1  0
 25 13  2  0
 23  8  1  0
M  END
> <COMPOUND_ID>
DNDI1417760

$$$$

  SciTegic04051205032D

 25 27  0  0  0  0            999 V2000
    6.9652   -6.9609    0.0000 C   0  0
    6.3794   -6.3751    0.0000 C   0  0
    9.5079   -8.4940    0.0000 C   0  0
    8.7102   -8.7059    0.0000 C   0  0
    7.7545   -6.7490    0.0000 C   0  0
   10.0937   -9.0798    0.0000 C   0  0
    8.3403   -7.3224    0.0000 O   0  0
    8.1285   -8.1201    0.0000 C   0  0
    6.5913   -5.5774    0.0000 C   0  0
    8.4983   -9.5036    0.0000 C   0  0
    7.9748   -5.9473    0.0000 C   0  0
    7.3931   -5.3655    0.0000 C   0  0
    9.8734   -9.8775    0.0000 C   0  0
    9.7238   -7.6963    0.0000 Cl  0  0
    6.7533   -7.7586    0.0000 C   0  0
    9.0757  -10.0894    0.0000 C   0  0
    6.0345   -8.1699    0.0000 N   0  0
   10.4551  -10.4633    0.0000 Cl  0  0
    5.5858   -6.5995    0.0000 C   0  0
    5.3241  -10.2265    0.0000 O   0  0
    6.0345   -8.9926    0.0000 C   0  0
    6.0055   -5.0000    0.0000 C   0  0
    5.3241   -9.4039    0.0000 C   0  0
    5.0000   -6.0137    0.0000 C   0  0
    5.2119   -5.2160    0.0000 C   0  0
  2  1  2  0
  3  4  2  0
  4  8  1  0
  5  1  1  0
  6  3  1  0
  7  5  1  0
  8  7  1  0
  9  2  1  0
 10  4  1  0
 11  5  2  0
 12 11  1  0
 13 16  1  0
 14  3  1  0
 15  1  1  0
 16 10  2  0
 17 15  1  0
 18 13  1  0
 19  2  1  0
 20 23  1  0
 21 17  1  0
 22  9  1  0
 23 21  1  0
 24 19  2  0
 25 24  1  0
 12  9  2  0
 25 22  2  0
 13  6  2  0
M  END
> <COMPOUND_ID>
DNDI1417761

$$$$

  SciTegic04051205032D

 23 25  0  0  0  0            999 V2000
    8.7524   -8.4239    0.0000 C   0  0
    8.2758   -9.1010    0.0000 C   0  0
    8.4100   -7.6836    0.0000 C   0  0
    9.5806   -8.5041    0.0000 C   0  0
    8.8820   -7.0050    0.0000 C   0  0
   10.0526   -7.8332    0.0000 C   0  0
    9.7102   -7.0837    0.0000 C   0  0
    8.6121   -9.8598    0.0000 N   0  0
    7.4553   -9.0223    0.0000 C   0  0
    7.1145   -8.2728    0.0000 C   0  0
    6.9849   -9.6932    0.0000 C   0  0
    5.8143   -8.8604    0.0000 C   0  0
    9.4449   -9.9292    0.0000 C   0  0
    8.5442   -6.2647    0.0000 O   0  0
   10.1945   -6.4266    0.0000 O   0  0
    6.1660   -9.6238    0.0000 C   0  0
    6.2986   -8.1941    0.0000 C   0  0
    5.0000   -8.7817    0.0000 Br  0  0
    9.9323   -9.2614    0.0000 C   0  0
    7.7252   -6.1860    0.0000 C   0  0
    9.8444   -5.6771    0.0000 C   0  0
    7.3967   -5.4365    0.0000 C   0  0
   10.3240   -5.0000    0.0000 C   0  0
  2  1  1  0
  3  1  2  0
  4  1  1  0
  5  3  1  0
  6  4  2  0
  7  6  1  0
  8  2  1  0
  9  2  1  0
 10  9  2  0
 11  9  1  0
 12 16  1  0
 13 19  1  0
 14  5  1  0
 15  7  1  0
 16 11  2  0
 17 10  1  0
 18 12  1  0
 19  4  1  0
 20 14  1  0
 21 15  1  0
 22 20  1  0
 23 21  1  0
 13  8  1  0
  5  7  2  0
 12 17  2  0
M  END
> <COMPOUND_ID>
DNDI1417762

$$$$

  SciTegic04051205032D

 28 31  0  0  0  0            999 V2000
    7.3414   -7.5012    0.0000 C   0  0
    7.3414   -8.3150    0.0000 C   0  0
    6.6246   -8.7331    0.0000 C   0  0
    8.0581   -7.0756    0.0000 C   0  0
    5.9079   -8.3150    0.0000 C   0  0
    8.0581   -8.7331    0.0000 N   0  0
    6.6246   -7.0756    0.0000 C   0  0
    5.9079   -7.5012    0.0000 C   0  0
    8.7749   -8.3150    0.0000 C   0  0
    8.7749   -7.5012    0.0000 C   0  0
    6.5985   -9.5805    0.0000 N   0  0
    8.0880   -6.2581    0.0000 C   0  0
    6.5985   -6.2581    0.0000 O   0  0
    5.1650   -7.1204    0.0000 O   0  0
    8.8309   -5.8437    0.0000 O   0  0
    9.5028   -8.7331    0.0000 C   0  0
    7.3712   -5.8437    0.0000 O   0  0
    5.9079   -9.9986    0.0000 C   0  0
    7.3152   -9.9724    0.0000 C   0  0
    9.5028   -9.5506    0.0000 C   0  0
   10.2196   -8.3150    0.0000 C   0  0
    7.3974   -5.0000    0.0000 C   0  0
    7.3414  -10.7900    0.0000 C   0  0
    5.9079  -10.8161    0.0000 C   0  0
   10.9101   -8.7331    0.0000 C   0  0
   10.2196   -9.9426    0.0000 C   0  0
    6.6246  -11.2081    0.0000 C   0  0
   10.9363   -9.5245    0.0000 C   0  0
  2  1  2  0
  3  2  1  0
  4  1  1  0
  5  8  1  0
  6  2  1  0
  7  1  1  0
  8  7  1  0
  9 10  1  0
 10  4  2  0
 11  3  1  0
 12  4  1  0
 13  7  2  0
 14  8  2  0
 15 12  2  0
 16  9  1  0
 17 12  1  0
 18 11  1  0
 19 11  1  0
 20 16  2  0
 21 16  1  0
 22 17  1  0
 23 19  1  0
 24 18  1  0
 25 21  2  0
 26 20  1  0
 27 23  1  0
 28 25  1  0
  5  3  2  0
  6  9  2  0
 24 27  1  0
 28 26  2  0
M  END
> <COMPOUND_ID>
DNDI1417763

$$$$

  SciTegic04051205032D

 28 31  0  0  0  0            999 V2000
   10.9734   -8.0898    0.0000 N   0  0
   11.4581   -7.4230    0.0000 C   0  0
   12.2829   -7.4230    0.0000 C   0  0
   10.1898   -7.8320    0.0000 C   0  0
   10.1898   -7.0071    0.0000 N   0  0
   10.9734   -6.7563    0.0000 O   0  0
   13.1044   -7.3440    0.0000 C   0  0
   12.6404   -6.6703    0.0000 C   0  0
    7.2581   -7.3131    0.0000 C   0  0
    9.5231   -8.3201    0.0000 C   0  0
    7.3440   -8.1310    0.0000 N   0  0
   12.3551   -8.2445    0.0000 C   0  0
    6.5054   -6.9762    0.0000 N   0  0
    8.7669   -7.9833    0.0000 C   0  0
    7.9249   -6.8250    0.0000 O   0  0
    8.1001   -8.4679    0.0000 C   0  0
    6.4229   -6.1548    0.0000 C   0  0
    9.6090   -9.1381    0.0000 C   0  0
    8.9422   -9.6227    0.0000 C   0  0
    8.1861   -9.2859    0.0000 C   0  0
   13.1044   -8.5916    0.0000 C   0  0
   11.6780   -8.7119    0.0000 C   0  0
    5.6667   -5.8180    0.0000 C   0  0
    5.5808   -5.0000    0.0000 C   0  0
    5.0000   -6.3026    0.0000 C   0  0
   13.1766   -9.4096    0.0000 C   0  0
   11.7468   -9.5333    0.0000 C   0  0
   12.4995   -9.8839    0.0000 C   0  0
  2  1  2  0
  3  2  1  0
  4  1  1  0
  5  4  2  0
  6  2  1  0
  7  3  1  0
  8  3  1  0
  9 11  1  0
 10  4  1  0
 11 16  1  0
 12  3  1  0
 13  9  1  0
 14 10  2  0
 15  9  2  0
 16 14  1  0
 17 13  1  0
 18 10  1  0
 19 18  2  0
 20 19  1  0
 21 12  2  0
 22 12  1  0
 23 17  1  0
 24 23  1  0
 25 23  1  0
 26 21  1  0
 27 22  2  0
 28 27  1  0
  5  6  1  0
  7  8  1  0
 20 16  2  0
 28 26  2  0
M  END
> <COMPOUND_ID>
DNDI1417764

$$$$

  SciTegic04051205032D

 27 30  0  0  0  0            999 V2000
    9.1727   -7.7110    0.0000 C   0  0
    9.8076   -8.2257    0.0000 C   0  0
    8.8708   -9.3409    0.0000 C   0  0
    8.3800   -7.9889    0.0000 C   0  0
    8.7438  -10.1817    0.0000 N   0  0
   10.5865   -7.9272    0.0000 C   0  0
    8.2187   -8.8228    0.0000 N   0  0
    9.5605   -9.1453    0.0000 S   0  0
    9.3031   -6.9045    0.0000 C   0  0
    7.7246   -7.4604    0.0000 C   0  0
   11.2453   -8.4522    0.0000 N   0  0
    9.4712  -10.4527    0.0000 C   0  0
    6.4515   -6.3727    0.0000 C   0  0
    9.9929   -9.8008    0.0000 C   0  0
    5.8030   -5.8407    0.0000 N   0  0
   10.7409   -7.1001    0.0000 C   0  0
   10.0923   -6.5922    0.0000 C   0  0
    7.8928   -6.6231    0.0000 C   0  0
    6.9354   -7.7316    0.0000 C   0  0
    6.2834   -7.1790    0.0000 C   0  0
    7.2545   -6.0878    0.0000 C   0  0
    9.8076   -8.9120    0.0000 O   0  0
   12.0380   -8.1536    0.0000 C   0  0
    5.9471   -5.0000    0.0000 C   0  0
    5.0000   -6.1119    0.0000 C   0  0
   11.5233   -6.8153    0.0000 C   0  0
   12.1547   -7.3472    0.0000 C   0  0
  2  1  2  0
  3  7  1  0
  4  1  1  0
  5  3  2  0
  6  2  1  0
  7  4  1  0
  8  3  1  0
  9  1  1  0
 10  4  1  0
 11  6  2  0
 12  5  1  0
 13 21  2  0
 14  8  1  0
 15 13  1  0
 16 17  1  0
 17  9  2  0
 18 10  2  0
 19 10  1  0
 20 19  2  0
 21 18  1  0
 22  2  1  0
 23 11  1  0
 24 15  1  0
 25 15  1  0
 26 16  2  0
 27 26  1  0
 16  6  1  0
 13 20  1  0
 27 23  2  0
 14 12  2  0
M  END
> <COMPOUND_ID>
DNDI1417765

$$$$

  SciTegic04051205032D

 28 31  0  0  0  0            999 V2000
    8.0044   -8.0243    0.0000 C   0  0
    8.8511   -6.7894    0.0000 N   0  0
    8.5700   -8.6306    0.0000 C   0  0
    8.1375   -7.2183    0.0000 C   0  0
    7.2317   -8.2091    0.0000 C   0  0
    9.3908   -8.5640    0.0000 N   0  0
    9.6275   -7.1037    0.0000 C   0  0
    9.8345   -7.8875    0.0000 C   0  0
    8.3445   -9.3959    0.0000 C   0  0
    7.5756   -9.5955    0.0000 C   0  0
    7.0135   -9.0077    0.0000 C   0  0
    7.4092   -6.8560    0.0000 C   0  0
    6.4811   -7.7100    0.0000 O   0  0
    6.7215   -7.2996    0.0000 C   0  0
    7.3685   -6.0241    0.0000 C   0  0
    8.8030   -5.9760    0.0000 C   0  0
    5.9229   -6.1128    0.0000 C   0  0
    6.6180   -5.6286    0.0000 C   0  0
    5.9895   -6.9336    0.0000 C   0  0
   10.1820   -6.4826    0.0000 C   0  0
    5.1650   -5.7986    0.0000 O   0  0
   10.6811   -8.0797    0.0000 C   0  0
    7.9859  -10.2832    0.0000 C   0  0
    6.9248  -10.1057    0.0000 C   0  0
    5.0763   -5.0000    0.0000 C   0  0
    9.4722   -5.5250    0.0000 C   0  0
   11.0028   -6.6674    0.0000 C   0  0
   11.2431   -7.4771    0.0000 C   0  0
  2  4  1  0
  3  1  2  0
  4  1  1  0
  5  1  1  0
  6  3  1  0
  7  2  1  0
  8  6  1  0
  9  3  1  0
 10 11  1  0
 11  5  1  0
 12  4  1  0
 13  5  2  0
 14 12  1  0
 15 12  2  0
 16  2  1  0
 17 18  2  0
 18 15  1  0
 19 14  2  0
 20  7  2  0
 21 17  1  0
 22  8  2  0
 23 10  1  0
 24 10  1  0
 25 21  1  0
 26 16  1  0
 27 20  1  0
 28 22  1  0
 10  9  1  0
  8  7  1  0
 17 19  1  0
 28 27  2  0
M  END
> <COMPOUND_ID>
DNDI1417766

$$$$

  SciTegic04051205032D

 27 30  0  0  0  0            999 V2000
    7.1452   -6.6630    0.0000 N   0  0
    7.1452   -5.0000    0.0000 S   0  0
    6.4260   -6.2597    0.0000 C   0  0
    7.8603   -6.2473    0.0000 C   0  0
    7.8603   -5.4158    0.0000 C   0  0
    6.4260   -5.4158    0.0000 C   0  0
    7.1452   -7.4945    0.0000 C   0  0
    7.8561   -7.9060    0.0000 C   0  0
    7.1369   -9.1408    0.0000 N   0  0
    8.5587   -7.4945    0.0000 O   0  0
    5.7151   -6.6630    0.0000 C   0  0
    8.5837   -6.6630    0.0000 C   0  0
    5.7151   -5.0125    0.0000 C   0  0
    8.5712   -5.0125    0.0000 C   0  0
    6.4260  -11.1987    0.0000 C   0  0
    7.8561   -8.7209    0.0000 C   0  0
    7.1369   -9.9557    0.0000 C   0  0
    6.4260  -10.3672    0.0000 C   0  0
    5.7109  -11.6020    0.0000 C   0  0
    7.1369  -11.6020    0.0000 C   0  0
    9.2904   -6.2473    0.0000 C   0  0
    5.0000   -6.2473    0.0000 C   0  0
    9.2904   -5.4158    0.0000 C   0  0
    5.0000   -5.4283    0.0000 C   0  0
    7.1452  -12.4251    0.0000 C   0  0
    5.7109  -12.4251    0.0000 C   0  0
    6.4260  -12.8450    0.0000 C   0  0
  2  5  1  0
  3  1  1  0
  4  1  1  0
  5  4  2  0
  6  3  1  0
  7  1  1  0
  8  7  1  0
  9 16  1  0
 10  8  1  0
 11  3  2  0
 12  4  1  0
 13  6  2  0
 14  5  1  0
 15 18  1  0
 16  8  1  0
 17  9  1  0
 18 17  1  0
 19 15  2  0
 20 15  1  0
 21 12  2  0
 22 11  1  0
 23 21  1  0
 24 22  2  0
 25 20  2  0
 26 19  1  0
 27 25  1  0
  2  6  1  0
 14 23  2  0
 24 13  1  0
 27 26  2  0
M  END
> <COMPOUND_ID>
DNDI1417767

$$$$

  SciTegic04051205032D

 25 27  0  0  0  0            999 V2000
   11.4595   -7.0406    0.0000 C   0  0
   12.2813   -7.1278    0.0000 C   0  0
   10.9054   -7.6508    0.0000 O   0  0
   12.6113   -7.8749    0.0000 C   0  0
   11.0486   -6.3246    0.0000 C   0  0
   10.1520   -7.3145    0.0000 C   0  0
    8.0227   -6.0693    0.0000 C   0  0
    8.7263   -7.3145    0.0000 N   0  0
   10.2392   -6.4989    0.0000 C   0  0
    9.4360   -7.7317    0.0000 C   0  0
    7.3067   -6.4865    0.0000 C   0  0
   13.4331   -7.9621    0.0000 C   0  0
    8.7263   -6.4865    0.0000 N   0  0
    8.0227   -5.2475    0.0000 O   0  0
    6.5845   -6.0693    0.0000 C   0  0
    7.3067   -7.3145    0.0000 C   0  0
   12.1257   -8.5411    0.0000 Cl  0  0
    5.8810   -7.3145    0.0000 C   0  0
   13.7631   -8.7154    0.0000 Cl  0  0
   12.7607   -6.4554    0.0000 C   0  0
    5.8810   -6.4865    0.0000 C   0  0
    6.5845   -7.7317    0.0000 C   0  0
    5.1650   -7.7317    0.0000 F   0  0
   13.5763   -6.5425    0.0000 C   0  0
   13.9188   -7.3021    0.0000 C   0  0
  2  1  1  0
  3  1  1  0
  4  2  1  0
  5  1  2  0
  6  3  1  0
  7 13  1  0
  8 10  2  0
  9  5  1  0
 10  6  1  0
 11  7  1  0
 12  4  2  0
 13  8  1  0
 14  7  2  0
 15 11  1  0
 16 11  2  0
 17  4  1  0
 18 22  2  0
 19 12  1  0
 20  2  2  0
 21 15  2  0
 22 16  1  0
 23 18  1  0
 24 20  1  0
 25 24  2  0
  6  9  2  0
 25 12  1  0
 18 21  1  0
M  END
> <COMPOUND_ID>
DNDI1417768

$$$$

  SciTegic04051205032D

 26 27  0  0  0  0            999 V2000
    7.1023   -7.0666    0.0000 N   0  0
    7.8188   -6.6523    0.0000 C   0  0
    7.8188   -5.8286    0.0000 C   0  0
    6.4004   -5.8286    0.0000 C   0  0
    6.4004   -6.6523    0.0000 C   0  0
   13.5505   -6.6425    0.0000 C   0  0
    7.1023   -5.4143    0.0000 C   0  0
    8.5303   -5.4143    0.0000 C   0  0
    5.6937   -5.4143    0.0000 C   0  0
    5.0000   -5.0000    0.0000 N   0  0
    9.2371   -5.0000    0.0000 N   0  0
   12.8438   -7.0568    0.0000 C   0  0
    8.5303   -7.0666    0.0000 S   0  0
    9.9535   -7.0666    0.0000 C   0  0
   10.6554   -6.6523    0.0000 N   0  0
   12.1322   -6.6377    0.0000 C   0  0
   11.4157   -7.0568    0.0000 C   0  0
    9.9535   -7.8951    0.0000 O   0  0
   13.1264   -5.9309    0.0000 F   0  0
   13.9745   -7.3590    0.0000 F   0  0
   14.2474   -6.2429    0.0000 F   0  0
    5.6807   -7.0666    0.0000 N   0  0
    9.2371   -6.6620    0.0000 C   0  0
   12.8438   -7.9049    0.0000 C   0  0
   12.1322   -8.3094    0.0000 C   0  0
   11.4157   -7.9049    0.0000 C   0  0
  2  1  1  0
  3  2  2  0
  4  5  1  0
  5  1  2  0
  6 12  1  0
  7  4  2  0
  8  3  1  0
  9  4  1  0
 10  9  3  0
 11  8  3  0
 12 16  1  0
 13  2  1  0
 14 23  1  0
 15 14  1  0
 16 17  2  0
 17 15  1  0
 18 14  2  0
 19  6  1  0
 20  6  1  0
 21  6  1  0
 22  5  1  0
 23 13  1  0
 24 25  1  0
 25 26  2  0
 26 17  1  0
  3  7  1  0
 24 12  2  0
M  END
> <COMPOUND_ID>
DNDI1417769

$$$$

  SciTegic04051205032D

 28 31  0  0  0  0            999 V2000
    6.3821   -9.5110    0.0000 C   0  0
    7.0938   -9.0984    0.0000 C   0  0
    6.9218   -8.3007    0.0000 C   0  0
    6.5402  -10.3087    0.0000 C   0  0
    7.3620  -10.3877    0.0000 N   0  0
    7.6989   -9.6416    0.0000 C   0  0
    6.1070   -8.2148    0.0000 N   0  0
    5.7666   -8.9574    0.0000 N   0  0
    6.9253   -7.4686    0.0000 C   0  0
    6.2101   -7.0457    0.0000 C   0  0
    7.6508   -7.0629    0.0000 C   0  0
    8.5000   -9.4835    0.0000 C   0  0
    5.9901  -10.9206    0.0000 O   0  0
    6.2101   -6.2343    0.0000 C   0  0
    7.6508   -6.2480    0.0000 C   0  0
    6.9356   -5.8251    0.0000 C   0  0
    7.7814  -11.1029    0.0000 C   0  0
    8.6031  -11.1029    0.0000 C   0  0
    9.0501  -10.1092    0.0000 C   0  0
    8.7475   -8.7064    0.0000 C   0  0
    9.0192  -11.8146    0.0000 C   0  0
    5.4950   -7.4549    0.0000 O   0  0
   10.1194   -9.1431    0.0000 C   0  0
    9.5658   -8.5207    0.0000 C   0  0
    9.8650   -9.9339    0.0000 C   0  0
   10.9515   -8.9677    0.0000 F   0  0
    8.3556   -7.4790    0.0000 C   0  0
    6.9391   -5.0000    0.0000 C   0  0
  2  1  2  0
  3  2  1  0
  4  1  1  0
  5  4  1  0
  6  2  1  0
  7  8  1  0
  8  1  1  0
  9  3  1  0
 10  9  1  0
 11  9  2  0
 12  6  1  0
 13  4  2  0
 14 10  2  0
 15 11  1  0
 16 15  2  0
 17  5  1  0
 18 17  1  0
 19 12  2  0
 20 12  1  0
 21 18  2  0
 22 10  1  0
 23 24  1  0
 24 20  2  0
 25 19  1  0
 26 23  1  0
 27 11  1  0
 28 16  1  0
  7  3  2  0
  5  6  1  0
 25 23  2  0
 16 14  1  0
M  END
> <COMPOUND_ID>
DNDI1417770

$$$$

  SciTegic04051205032D

 25 27  0  0  0  0            999 V2000
    7.8593   -6.6516    0.0000 S   0  0
    8.5337   -9.6003    0.0000 N   0  0
    7.8593   -9.1151    0.0000 C   0  0
    8.2756  -10.3848    0.0000 C   0  0
    8.5750   -7.0644    0.0000 C   0  0
    7.8593   -8.2997    0.0000 N   0  0
    8.5750   -7.8902    0.0000 C   0  0
    7.1953   -9.6071    0.0000 S   0  0
    7.4464  -10.3848    0.0000 C   0  0
    7.1333   -6.2352    0.0000 C   0  0
    7.4430   -7.3741    0.0000 O   0  0
    8.2756   -5.9324    0.0000 O   0  0
    8.7711  -11.0454    0.0000 C   0  0
    9.5900  -10.9593    0.0000 N   0  0
    9.2907   -8.2928    0.0000 O   0  0
    6.4142   -6.6516    0.0000 C   0  0
    7.1333   -5.4197    0.0000 C   0  0
    5.7089   -5.4301    0.0000 C   0  0
    5.7089   -6.2352    0.0000 C   0  0
    6.4245   -5.0103    0.0000 C   0  0
    5.0000   -5.0000    0.0000 F   0  0
   10.0820  -11.6303    0.0000 C   0  0
    8.4339  -11.8058    0.0000 C   0  0
    9.7449  -12.3770    0.0000 C   0  0
    8.9191  -12.4664    0.0000 C   0  0
  2  3  2  0
  3  6  1  0
  4  2  1  0
  5  1  1  0
  6  7  1  0
  7  5  1  0
  8  3  1  0
  9  8  1  0
 10  1  1  0
 11  1  2  0
 12  1  2  0
 13  4  1  0
 14 13  1  0
 15  7  2  0
 16 10  1  0
 17 10  2  0
 18 20  2  0
 19 16  2  0
 20 17  1  0
 21 18  1  0
 22 14  2  0
 23 13  2  0
 24 25  2  0
 25 23  1  0
 18 19  1  0
  9  4  2  0
 22 24  1  0
M  END
> <COMPOUND_ID>
DNDI1417771

$$$$

  SciTegic04051205032D

 26 29  0  0  0  0            999 V2000
   10.0204   -6.6423    0.0000 N   0  0
    8.8864   -5.9889    0.0000 N   0  0
    9.6413   -5.9889    0.0000 C   0  0
    8.8864   -7.2990    0.0000 N   0  0
    8.5004   -6.6423    0.0000 C   0  0
   10.7923   -6.6423    0.0000 C   0  0
   11.1951   -5.9720    0.0000 C   0  0
   11.9670   -5.9720    0.0000 O   0  0
   11.1714   -7.3159    0.0000 C   0  0
   12.3732   -6.6423    0.0000 C   0  0
    7.7500   -6.6423    0.0000 C   0  0
   11.9941   -7.3159    0.0000 C   0  0
   12.3732   -5.2475    0.0000 O   0  0
    9.9934   -5.3423    0.0000 S   0  0
    7.3697   -5.9889    0.0000 C   0  0
    6.6238   -5.9889    0.0000 C   0  0
   11.1951   -5.2475    0.0000 C   0  0
    6.2289   -6.6423    0.0000 C   0  0
    7.3697   -7.2990    0.0000 C   0  0
   12.4138   -7.9524    0.0000 O   0  0
    8.5174   -5.3423    0.0000 C   0  0
    6.6238   -7.2990    0.0000 C   0  0
    6.2356   -5.2746    0.0000 O   0  0
    5.4062   -6.6423    0.0000 O   0  0
    5.4062   -5.2746    0.0000 C   0  0
    5.0000   -7.3464    0.0000 C   0  0
  2  3  1  0
  3  1  1  0
  4  1  1  0
  5  4  2  0
  6  1  1  0
  7  6  1  0
  8  7  1  0
  9  6  1  0
 10 12  1  0
 11  5  1  0
 12  9  1  0
 13 17  1  0
 14  3  2  0
 15 11  1  0
 16 15  2  0
 17  7  1  0
 18 22  2  0
 19 11  2  0
 20 12  2  0
 21  2  1  0
 22 19  1  0
 23 16  1  0
 24 18  1  0
 25 23  1  0
 26 24  1  0
  2  5  1  0
 10  8  1  0
 13 10  1  0
 16 18  1  0
M  END
> <COMPOUND_ID>
DNDI1417772

$$$$

  SciTegic04051205032D

 28 31  0  0  0  0            999 V2000
   10.7175   -9.9577    0.0000 C   0  0
    9.9989  -10.3703    0.0000 N   0  0
    7.1488   -7.8846    0.0000 C   0  0
   11.4292  -10.3703    0.0000 N   0  0
    9.2872   -9.9577    0.0000 C   0  0
    9.2872   -9.1326    0.0000 C   0  0
    9.9989   -8.7234    0.0000 C   0  0
    7.1385   -8.7131    0.0000 N   0  0
   10.7175   -9.1326    0.0000 C   0  0
    6.4268   -7.4754    0.0000 C   0  0
    7.8639   -9.1326    0.0000 C   0  0
    8.5755   -8.7234    0.0000 C   0  0
    7.8570   -7.4754    0.0000 O   0  0
    6.4268   -6.6434    0.0000 C   0  0
    8.5755  -10.3703    0.0000 C   0  0
   12.8559  -11.1988    0.0000 O   0  0
    7.8639   -9.9577    0.0000 C   0  0
    5.7151   -6.2309    0.0000 C   0  0
   11.4292  -11.1988    0.0000 C   0  0
   12.1442   -9.9577    0.0000 C   0  0
    5.7288   -5.4058    0.0000 O   0  0
    9.9989   -7.8983    0.0000 C   0  0
    5.7151   -7.8846    0.0000 C   0  0
    5.0000   -7.4754    0.0000 C   0  0
   12.1408  -11.6080    0.0000 C   0  0
   12.8559  -10.3703    0.0000 C   0  0
    5.0000   -6.6434    0.0000 C   0  0
    5.0172   -5.0000    0.0000 C   0  0
  2  1  2  0
  3  8  1  0
  4  1  1  0
  5  2  1  0
  6  7  1  0
  7  9  2  0
  8 11  1  0
  9  1  1  0
 10  3  1  0
 11 12  2  0
 12  6  1  0
 13  3  2  0
 14 10  2  0
 15  5  1  0
 16 26  1  0
 17 15  2  0
 18 14  1  0
 19  4  1  0
 20  4  1  0
 21 18  1  0
 22  7  1  0
 23 10  1  0
 24 23  2  0
 25 19  1  0
 26 20  1  0
 27 24  1  0
 28 21  1  0
  5  6  2  0
 16 25  1  0
 17 11  1  0
 27 18  2  0
M  END
> <COMPOUND_ID>
DNDI1417773

$$$$

  SciTegic04051205032D

 28 31  0  0  0  0            999 V2000
    8.5643   -8.7259    0.0000 C   0  0
    8.5643   -7.8975    0.0000 N   0  0
    7.8494   -7.4713    0.0000 C   0  0
   11.4171  -10.3791    0.0000 C   0  0
    9.2792   -9.1383    0.0000 N   0  0
    7.8494   -9.1349    0.0000 N   0  0
   10.7056   -9.9633    0.0000 N   0  0
   12.1423   -9.9770    0.0000 C   0  0
    7.1344   -7.8975    0.0000 C   0  0
    7.8494   -6.6567    0.0000 N   0  0
    7.1344   -8.7259    0.0000 C   0  0
   12.2351   -9.1624    0.0000 O   0  0
    9.2792   -9.9633    0.0000 C   0  0
    9.9907   -8.7190    0.0000 C   0  0
   10.7056   -9.1383    0.0000 C   0  0
    9.9872  -10.3791    0.0000 C   0  0
   11.4171  -11.2040    0.0000 O   0  0
   12.8950  -10.3138    0.0000 C   0  0
   13.0497   -9.0008    0.0000 C   0  0
   13.4518   -9.7158    0.0000 C   0  0
    7.1344   -6.2477    0.0000 C   0  0
    5.7080   -5.4193    0.0000 C   0  0
    6.4230   -6.6533    0.0000 C   0  0
    7.1448   -5.4193    0.0000 C   0  0
    6.4230   -5.0069    0.0000 C   0  0
    5.7080   -6.2409    0.0000 C   0  0
    6.4230   -9.1383    0.0000 C   0  0
    5.0000   -5.0000    0.0000 C   0  0
  2  1  1  0
  3  2  2  0
  4  7  1  0
  5  1  1  0
  6  1  2  0
  7 15  1  0
  8  4  1  0
  9 11  2  0
 10  3  1  0
 11  6  1  0
 12  8  1  0
 13  5  1  0
 14  5  1  0
 15 14  1  0
 16 13  1  0
 17  4  2  0
 18  8  2  0
 19 12  1  0
 20 18  1  0
 21 10  1  0
 22 25  1  0
 23 21  2  0
 24 21  1  0
 25 24  2  0
 26 23  1  0
 27 11  1  0
 28 22  1  0
  3  9  1  0
 16  7  1  0
 22 26  2  0
 19 20  2  0
M  END
> <COMPOUND_ID>
DNDI1417774

$$$$

  SciTegic04051205032D

 28 30  0  0  0  0            999 V2000
    9.2839   -8.7367    0.0000 C   0  0
    7.8592   -8.7367    0.0000 C   0  0
    8.5727   -9.9734    0.0000 N   0  0
    8.5727   -8.3244    0.0000 C   0  0
    7.8592   -9.5612    0.0000 C   0  0
    9.2839   -9.5612    0.0000 C   0  0
    9.9927   -8.3124    0.0000 C   0  0
    7.1480   -8.3196    0.0000 C   0  0
    8.5727   -7.5096    0.0000 O   0  0
    6.4320   -8.7319    0.0000 C   0  0
    9.9903   -7.4879    0.0000 C   0  0
    8.5727  -10.7931    0.0000 C   0  0
    6.4320   -9.5491    0.0000 C   0  0
   10.7063   -7.0612    0.0000 C   0  0
    5.7184   -9.9614    0.0000 C   0  0
   10.6942   -6.2367    0.0000 C   0  0
    5.7257  -10.7858    0.0000 O   0  0
   11.4078   -5.8245    0.0000 O   0  0
    5.0000   -8.7246    0.0000 C   0  0
    9.2598   -6.2584    0.0000 C   0  0
    5.7112   -8.3124    0.0000 C   0  0
    9.2695   -7.0829    0.0000 C   0  0
    5.0000   -9.5491    0.0000 C   0  0
    9.9782   -5.8365    0.0000 C   0  0
    7.8664  -11.2053    0.0000 C   0  0
    9.2839  -11.2053    0.0000 C   0  0
    6.0704  -11.5597    0.0000 C   0  0
   11.3933   -5.0000    0.0000 C   0  0
  2  4  1  0
  3  6  1  0
  4  1  1  0
  5  3  1  0
  6  1  1  0
  7  1  2  0
  8  2  2  0
  9  4  2  0
 10  8  1  0
 11  7  1  0
 12  3  1  0
 13 10  1  0
 14 11  2  0
 15 13  2  0
 16 14  1  0
 17 15  1  0
 18 16  1  0
 19 21  1  0
 20 22  2  0
 21 10  2  0
 22 11  1  0
 23 19  2  0
 24 20  1  0
 25 12  1  0
 26 12  1  0
 27 17  1  0
 28 18  1  0
  2  5  1  0
 16 24  2  0
 15 23  1  0
M  END
> <COMPOUND_ID>
DNDI1417775

$$$$

  SciTegic04051205032D

 28 30  0  0  0  0            999 V2000
    7.8538   -6.6647    0.0000 C   0  0
    8.5952   -6.2450    0.0000 O   0  0
    7.1636   -6.2450    0.0000 C   0  0
    7.8538   -7.4993    0.0000 C   0  0
    6.4549  -11.6168    0.0000 C   0  0
    5.7414  -11.1925    0.0000 C   0  0
    6.4362   -6.6460    0.0000 C   0  0
    7.1636   -7.8957    0.0000 C   0  0
    9.3087   -6.6460    0.0000 C   0  0
    6.4222   -7.4760    0.0000 C   0  0
    6.4549   -9.1408    0.0000 N   0  0
    7.1636   -5.4289    0.0000 O   0  0
    7.1683  -11.1925    0.0000 O   0  0
   10.0034   -6.2450    0.0000 C   0  0
    7.1636   -8.7164    0.0000 C   0  0
    5.7414  -10.3578    0.0000 C   0  0
    6.4549  -12.4282    0.0000 C   0  0
    5.0233  -11.5889    0.0000 C   0  0
    6.4549   -9.9614    0.0000 C   0  0
    7.8958  -11.5889    0.0000 C   0  0
    6.4362   -5.0000    0.0000 C   0  0
    9.9941   -5.4289    0.0000 C   0  0
   10.7309   -6.6460    0.0000 C   0  0
    5.0000  -12.4095    0.0000 C   0  0
    5.7414  -12.8339    0.0000 C   0  0
   11.4210   -6.2310    0.0000 C   0  0
   10.6796   -5.0000    0.0000 C   0  0
   11.4210   -5.4056    0.0000 C   0  0
  2  1  1  0
  3  1  1  0
  4  1  2  0
  5  6  1  0
  6 16  1  0
  7  3  2  0
  8  4  1  0
  9  2  1  0
 10  8  2  0
 11 15  1  0
 12  3  1  0
 13  5  1  0
 14  9  1  0
 15  8  1  0
 16 19  1  0
 17  5  2  0
 18  6  2  0
 19 11  1  0
 20 13  1  0
 21 12  1  0
 22 14  2  0
 23 14  1  0
 24 18  1  0
 25 24  2  0
 26 23  2  0
 27 22  1  0
 28 26  1  0
 10  7  1  0
 28 27  2  0
 17 25  1  0
M  END
> <COMPOUND_ID>
DNDI1417776

$$$$

  SciTegic04051205032D

 28 30  0  0  0  0            999 V2000
    9.2897   -7.0745    0.0000 C   0  0
   10.0022   -7.4866    0.0000 C   0  0
    8.5626   -7.4817    0.0000 C   0  0
   10.7147   -7.0794    0.0000 C   0  0
    8.5626   -8.3009    0.0000 N   0  0
    9.2897   -6.2602    0.0000 C   0  0
    7.8501   -8.7080    0.0000 C   0  0
    7.8646   -7.0745    0.0000 C   0  0
   11.4369   -7.4866    0.0000 N   0  0
    6.4347   -6.2457    0.0000 C   0  0
    5.7125   -5.8289    0.0000 N   0  0
   10.7147   -6.2602    0.0000 C   0  0
   10.0022   -5.8531    0.0000 C   0  0
    7.1327   -8.2960    0.0000 O   0  0
    7.8646   -6.2457    0.0000 C   0  0
    7.1521   -7.4817    0.0000 C   0  0
    7.1376   -5.8289    0.0000 C   0  0
    6.4347   -7.0745    0.0000 C   0  0
   10.0022   -8.3154    0.0000 O   0  0
    7.8355   -9.5514    0.0000 C   0  0
   12.1397   -7.0745    0.0000 C   0  0
    5.7125   -5.0000    0.0000 C   0  0
    5.0000   -6.2457    0.0000 C   0  0
   11.4369   -5.8385    0.0000 C   0  0
    7.1181   -9.9682    0.0000 C   0  0
    7.1181  -10.7971    0.0000 C   0  0
   12.1397   -6.2602    0.0000 C   0  0
    6.3960  -11.2091    0.0000 C   0  0
  2  1  1  0
  3  1  1  0
  4  2  2  0
  5  3  1  0
  6  1  2  0
  7  5  1  0
  8  3  1  0
  9  4  1  0
 10 18  2  0
 11 10  1  0
 12 13  2  0
 13  6  1  0
 14  7  2  0
 15  8  1  0
 16  8  2  0
 17 15  2  0
 18 16  1  0
 19  2  1  0
 20  7  1  0
 21  9  2  0
 22 11  1  0
 23 11  1  0
 24 12  1  0
 25 20  1  0
 26 25  1  0
 27 24  2  0
 28 26  1  0
  4 12  1  0
 10 17  1  0
 21 27  1  0
M  END
> <COMPOUND_ID>
DNDI1417777

$$$$

  SciTegic04051205032D

 27 30  0  0  0  0            999 V2000
    7.8583   -7.4756    0.0000 C   0  0
    9.2936   -7.4756    0.0000 N   0  0
    7.1426   -7.8958    0.0000 C   0  0
    8.5738   -7.8791    0.0000 C   0  0
    9.2770   -6.6476    0.0000 C   0  0
    6.4229   -7.4756    0.0000 C   0  0
    7.8583   -6.6476    0.0000 C   0  0
    9.9926   -6.2315    0.0000 N   0  0
    8.5738   -8.7153    0.0000 C   0  0
    5.7155   -7.8791    0.0000 N   0  0
    8.5572   -6.2482    0.0000 C   0  0
    6.4229   -6.6476    0.0000 C   0  0
    7.1426   -6.2315    0.0000 C   0  0
    9.2936   -9.1148    0.0000 C   0  0
    7.8583   -9.1272    0.0000 C   0  0
    7.1343   -8.7153    0.0000 O   0  0
    8.5780  -10.3546    0.0000 C   0  0
    9.2936   -9.9302    0.0000 C   0  0
    7.8583   -9.9427    0.0000 C   0  0
    8.5738  -11.1742    0.0000 Cl  0  0
    7.7584   -6.0318    0.0000 O   0  0
    9.9759   -5.4119    0.0000 C   0  0
    5.0000   -7.4756    0.0000 C   0  0
    8.5488   -5.4327    0.0000 C   0  0
    5.7155   -6.2357    0.0000 C   0  0
    9.2562   -5.0000    0.0000 C   0  0
    5.0000   -6.6476    0.0000 C   0  0
  2  4  1  0
  3  1  2  0
  4  1  1  0
  5  2  1  0
  6  3  1  0
  7  1  1  0
  8  5  2  0
  9  4  1  0
 10  6  1  0
 11  5  1  0
 12 13  1  0
 13  7  2  0
 14  9  1  0
 15  9  2  0
 16  3  1  0
 17 18  1  0
 18 14  2  0
 19 15  1  0
 20 17  1  0
 21 11  1  0
 22  8  1  0
 23 10  2  0
 24 11  2  0
 25 12  1  0
 26 22  2  0
 27 25  2  0
 12  6  2  0
 17 19  2  0
 27 23  1  0
 26 24  1  0
M  END
> <COMPOUND_ID>
DNDI1417778

$$$$

  SciTegic04051205032D

 27 30  0  0  0  0            999 V2000
    7.7431   -8.5467    0.0000 C   0  0
    7.2597   -9.2135    0.0000 N   0  0
    7.2472   -7.8840    0.0000 N   0  0
    6.4720   -8.9635    0.0000 C   0  0
    6.4720   -8.1466    0.0000 C   0  0
    8.5725   -8.5467    0.0000 N   0  0
    7.5222  -10.0012    0.0000 C   0  0
    7.4972   -7.0963    0.0000 C   0  0
    6.9721  -10.6139    0.0000 C   0  0
    5.8801  -11.8475    0.0000 C   0  0
    5.3300  -12.4643    0.0000 Cl  0  0
    5.7468   -9.3844    0.0000 C   0  0
    5.7468   -7.7340    0.0000 C   0  0
    7.2305  -11.3973    0.0000 C   0  0
    6.1594  -10.4471    0.0000 C   0  0
    5.6093  -11.0640    0.0000 C   0  0
    6.6928  -12.0142    0.0000 C   0  0
    8.5600   -6.1336    0.0000 O   0  0
    9.3602   -5.9502    0.0000 C   0  0
    8.3099   -6.9130    0.0000 C   0  0
    9.6102   -5.1834    0.0000 C   0  0
    9.9103   -6.5629    0.0000 C   0  0
    5.0424   -8.1466    0.0000 C   0  0
    5.0424   -8.9760    0.0000 C   0  0
   10.7230   -6.3961    0.0000 C   0  0
   10.4104   -5.0000    0.0000 C   0  0
   10.9731   -5.6002    0.0000 C   0  0
  2  1  1  0
  3  1  1  0
  4  2  1  0
  5  3  1  0
  6  1  2  0
  7  2  1  0
  8  3  1  0
  9  7  1  0
 10 16  2  0
 11 10  1  0
 12  4  2  0
 13  5  2  0
 14  9  1  0
 15  9  2  0
 16 15  1  0
 17 14  2  0
 18 20  1  0
 19 18  1  0
 20  8  1  0
 21 19  1  0
 22 19  2  0
 23 13  1  0
 24 12  1  0
 25 22  1  0
 26 21  2  0
 27 25  2  0
  4  5  1  0
 24 23  2  0
 10 17  1  0
 27 26  1  0
M  END
> <COMPOUND_ID>
DNDI1417779

$$$$

  SciTegic04051205032D

 23 25  0  0  0  0            999 V2000
   11.1162   -6.0510    0.0000 N   0  0
    8.2787   -6.3344    0.0000 C   0  0
    7.3568   -6.0152    0.0000 C   0  0
    7.8590   -7.1774    0.0000 C   0  0
    8.1101   -7.9343    0.0000 C   0  0
    7.0985   -5.2475    0.0000 C   0  0
    6.8545   -6.6465    0.0000 C   0  0
    7.0519   -6.9909    0.0000 C   0  0
    5.7964   -5.7461    0.0000 C   0  0
    6.7398   -8.3791    0.0000 C   0  0
    9.0356   -6.6859    0.0000 O   0  0
    6.0546   -6.5030    0.0000 C   0  0
    6.5138   -7.6402    0.0000 C   0  0
    7.5828   -8.5406    0.0000 C   0  0
    6.2734   -5.1291    0.0000 C   0  0
    6.2268   -8.9997    0.0000 F   0  0
    5.0000   -5.6098    0.0000 Br  0  0
   10.4562   -6.5281    0.0000 C   0  0
    9.7029   -6.1945    0.0000 C   0  0
   11.9090   -6.2985    0.0000 C   0  0
   11.1162   -5.2582    0.0000 C   0  0
   12.3718   -5.6349    0.0000 C   0  0
   11.8946   -5.0000    0.0000 C   0  0
  2 11  1  0
  3  2  1  0
  4  2  1  0
  5  4  1  0
  6  3  2  0
  7  3  1  0
  8  4  2  0
  9 12  1  0
 10 14  1  0
 11 19  1  0
 12  7  2  0
 13  8  1  0
 14  5  2  0
 15  6  1  0
 16 10  1  0
 17  9  1  0
 18  1  1  0
 19 18  1  0
 20  1  1  0
 21  1  1  0
 22 20  1  0
 23 21  1  0
 23 22  1  0
  9 15  2  0
 10 13  2  0
M  END
> <COMPOUND_ID>
DNDI1417780

$$$$

  SciTegic04051205032D

 26 29  0  0  0  0            999 V2000
    7.2818   -7.9889    0.0000 C   0  0
    6.9817   -8.4955    0.0000 N   0  0
    6.9715   -7.4798    0.0000 N   0  0
    9.7118   -6.3277    0.0000 O   0  0
   10.3470   -7.1712    0.0000 C   0  0
    6.3878   -8.5058    0.0000 C   0  0
    6.3783   -7.4901    0.0000 C   0  0
    8.4775   -6.3277    0.0000 C   0  0
    9.7118   -7.9709    0.0000 C   0  0
    7.8603   -7.1712    0.0000 C   0  0
    7.8603   -7.9889    0.0000 S   0  0
    6.0663   -8.0069    0.0000 C   0  0
    8.4775   -7.9709    0.0000 C   0  0
   10.3229   -5.7937    0.0000 O   0  0
    6.0534   -9.1272    0.0000 C   0  0
    6.0415   -6.8695    0.0000 C   0  0
    8.4775   -5.8014    0.0000 C   0  0
   10.1069   -8.6960    0.0000 O   0  0
    6.4109   -6.2677    0.0000 C   0  0
    5.3266   -6.8515    0.0000 C   0  0
    6.4220   -9.7298    0.0000 F   0  0
    5.3523   -9.1529    0.0000 F   0  0
    5.0000   -6.2257    0.0000 C   0  0
    6.0791   -5.6471    0.0000 C   0  0
    5.3523   -5.6214    0.0000 C   0  0
    5.0180   -5.0000    0.0000 C   0  0
  2  1  2  0
  3  1  1  0
  4  8  1  0
  5  9  1  0
  6  2  1  0
  7  3  2  0
  8 10  1  0
  9 13  1  0
 10 11  1  0
 11  1  1  0
 12  7  1  0
 13 10  1  0
 14 17  1  0
 15  6  1  0
 16  7  1  0
 17  8  1  0
 18  9  2  0
 19 16  1  0
 20 16  2  0
 21 15  1  0
 22 15  1  0
 23 20  1  0
 24 19  2  0
 25 23  2  0
 26 25  1  0
  6 12  2  0
  5  4  1  0
  5 14  1  0
 25 24  1  0
M  END
> <COMPOUND_ID>
DNDI1417781

$$$$

  SciTegic04051205032D

 28 30  0  0  0  0            999 V2000
    7.9324   -9.1597    0.0000 C   0  0
    7.9324  -10.0067    0.0000 C   0  0
    7.1984   -8.7343    0.0000 C   0  0
    7.1984  -10.4283    0.0000 C   0  0
    8.6552   -8.7531    0.0000 N   0  0
    6.4756   -9.1597    0.0000 C   0  0
    6.4756  -10.0067    0.0000 C   0  0
    9.5022   -8.9828    0.0000 C   0  0
    8.6439  -10.4132    0.0000 N   0  0
    8.6439   -7.9212    0.0000 C   0  0
    7.1984   -7.8949    0.0000 O   0  0
    7.1984  -11.2715    0.0000 O   0  0
    9.5022   -9.5662    0.0000 O   0  0
    7.9211   -7.5034    0.0000 C   0  0
    9.3592   -7.4921    0.0000 C   0  0
    8.6251   -6.2386    0.0000 C   0  0
    7.9136   -6.6639    0.0000 C   0  0
    9.3479   -6.6564    0.0000 C   0  0
    5.7228  -10.4283    0.0000 C   0  0
    5.7228   -8.7343    0.0000 C   0  0
    8.6251   -5.4104    0.0000 O   0  0
   10.1271   -8.6327    0.0000 C   0  0
    9.3817  -10.1799    0.0000 C   0  0
    8.6439  -11.2414    0.0000 C   0  0
    9.3366   -5.0000    0.0000 C   0  0
    5.0000   -9.1597    0.0000 C   0  0
    5.0000  -10.0067    0.0000 C   0  0
   10.0706   -5.3991    0.0000 C   0  0
  2  1  2  0
  3  1  1  0
  4  2  1  0
  5  1  1  0
  6  3  1  0
  7  6  2  0
  8  5  1  0
  9  2  1  0
 10  5  1  0
 11  3  2  0
 12  4  2  0
 13  8  2  0
 14 10  1  0
 15 10  2  0
 16 18  2  0
 17 14  2  0
 18 15  1  0
 19  7  1  0
 20  6  1  0
 21 16  1  0
 22  8  1  0
 23  9  1  0
 24  9  1  0
 25 21  1  0
 26 20  2  0
 27 26  1  0
 28 25  1  0
  4  7  1  0
 16 17  1  0
 19 27  2  0
M  END
> <COMPOUND_ID>
DNDI1417782

$$$$

  SciTegic04051205032D

 28 30  0  0  0  0            999 V2000
    8.5013   -8.6985    0.0000 C   0  0
    8.5060   -7.9377    0.0000 C   0  0
    7.1723   -8.6985    0.0000 N   0  0
    7.8323   -9.0834    0.0000 N   0  0
    9.1659   -9.0926    0.0000 C   0  0
    7.1723   -7.9285    0.0000 C   0  0
   13.2493   -8.8451    0.0000 C   0  0
   11.0358   -8.9597    0.0000 N   0  0
   12.4794   -9.1522    0.0000 C   0  0
    6.6361   -7.3877    0.0000 C   0  0
   10.1421   -8.7351    0.0000 N   0  0
    9.0925   -9.8534    0.0000 O   0  0
   13.8955   -9.3538    0.0000 C   0  0
   11.8286   -8.6435    0.0000 C   0  0
    6.8286   -6.6499    0.0000 C   0  0
    5.8891   -7.5848    0.0000 C   0  0
   13.3593   -8.0248    0.0000 O   0  0
    6.2924   -6.0999    0.0000 C   0  0
    5.3437   -7.0349    0.0000 C   0  0
    5.5453   -6.2924    0.0000 C   0  0
   14.6655   -9.0422    0.0000 O   0  0
   12.3648   -9.9634    0.0000 C   0  0
   13.0156  -10.4812    0.0000 C   0  0
   13.7718  -10.1696    0.0000 C   0  0
    5.0000   -5.7516    0.0000 C   0  0
   14.7755   -8.2310    0.0000 C   0  0
    5.2062   -5.0000    0.0000 C   0  0
   14.1293   -7.7223    0.0000 C   0  0
  2  1  2  0
  3  4  1  0
  4  1  1  0
  5  1  1  0
  6  2  1  0
  7  9  1  0
  8 11  1  0
  9 14  1  0
 10  6  1  0
 11  5  1  0
 12  5  2  0
 13  7  2  0
 14  8  2  0
 15 10  1  0
 16 10  2  0
 17  7  1  0
 18 15  2  0
 19 16  1  0
 20 19  2  0
 21 13  1  0
 22  9  2  0
 23 22  1  0
 24 23  2  0
 25 20  1  0
 26 21  1  0
 27 25  1  0
 28 26  1  0
  3  6  2  0
 20 18  1  0
 24 13  1  0
M  END
> <COMPOUND_ID>
DNDI1417783

$$$$

  SciTegic04051205032D

 25 27  0  0  0  0            999 V2000
    9.1542   -7.9185    0.0000 S   0  0
    6.2496   -6.6192    0.0000 C   0  0
    5.5117   -7.7171    0.0000 C   0  0
    6.2951   -7.4316    0.0000 O   0  0
    5.4620   -6.4013    0.0000 N   0  0
    5.3751   -8.5184    0.0000 N   0  0
    5.0000   -7.0799    0.0000 N   0  0
    6.0123   -9.0494    0.0000 C   0  0
    6.8992   -6.1076    0.0000 C   0  0
    8.3681   -8.2054    0.0000 C   0  0
    9.9473   -7.6385    0.0000 N   0  0
    7.6854   -6.3269    0.0000 S   0  0
    8.8687   -7.1447    0.0000 O   0  0
    9.4425   -8.7060    0.0000 O   0  0
    6.8068   -8.7681    0.0000 C   0  0
    6.8578   -5.2828    0.0000 C   0  0
    5.8813   -9.8549    0.0000 O   0  0
    8.1432   -5.6400    0.0000 C   0  0
    7.6316   -5.0000    0.0000 C   0  0
    8.2191   -9.0039    0.0000 C   0  0
    7.7226   -7.6757    0.0000 C   0  0
    7.4440   -9.2880    0.0000 C   0  0
    6.9488   -7.9640    0.0000 C   0  0
   10.0921   -6.8316    0.0000 C   0  0
   10.5928   -8.1681    0.0000 C   0  0
  2  4  1  0
  3  6  1  0
  4  3  1  0
  5  7  1  0
  6  8  1  0
  7  3  2  0
  8 15  1  0
  9  2  1  0
 10  1  1  0
 11  1  1  0
 12  9  1  0
 13  1  2  0
 14  1  2  0
 15 23  1  0
 16  9  2  0
 17  8  2  0
 18 12  1  0
 19 16  1  0
 20 10  2  0
 21 10  1  0
 22 20  1  0
 23 21  2  0
 24 11  1  0
 25 11  1  0
 22 15  2  0
  5  2  2  0
 19 18  2  0
M  END
> <COMPOUND_ID>
DNDI1417784

$$$$

  SciTegic04051205032D

 26 29  0  0  0  0            999 V2000
    8.0628   -6.5196    0.0000 C   0  0
    8.2809   -7.3373    0.0000 C   0  0
    7.7801   -7.9743    0.0000 C   0  0
    7.3269   -6.1925    0.0000 S   0  0
   10.0730   -5.6133    0.0000 C   0  0
    8.0730   -8.6217    0.0000 N   0  0
    6.9590   -7.9743    0.0000 C   0  0
    9.4461   -6.1925    0.0000 C   0  0
    6.5877   -6.5605    0.0000 C   0  0
    8.6488   -5.9575    0.0000 C   0  0
    6.4139   -7.3884    0.0000 C   0  0
    9.0611   -7.5655    0.0000 C   0  0
    8.9180  -10.0458    0.0000 N   0  0
    9.6573   -6.9693    0.0000 C   0  0
    7.6642   -9.3406    0.0000 C   0  0
    8.9009   -8.6217    0.0000 C   0  0
   10.7032   -5.0444    0.0000 F   0  0
    9.5040   -5.0000    0.0000 F   0  0
   10.6453   -6.2334    0.0000 F   0  0
    8.0730  -10.0458    0.0000 C   0  0
    9.3200   -9.3406    0.0000 C   0  0
    9.3473  -10.7817    0.0000 C   0  0
    5.9642   -6.0153    0.0000 C   0  0
    5.6200   -7.6472    0.0000 C   0  0
    5.0000   -7.0953    0.0000 C   0  0
    5.1840   -6.2674    0.0000 C   0  0
  2  1  1  0
  3  2  1  0
  4  1  1  0
  5  8  1  0
  6  3  1  0
  7  3  1  0
  8 10  1  0
  9  4  1  0
 10  1  2  0
 11  9  2  0
 12  2  2  0
 13 20  1  0
 14  8  2  0
 15  6  1  0
 16  6  1  0
 17  5  1  0
 18  5  1  0
 19  5  1  0
 20 15  1  0
 21 16  1  0
 22 13  1  0
 23  9  1  0
 24 11  1  0
 25 24  2  0
 26 23  2  0
 14 12  1  0
 11  7  1  0
 26 25  1  0
 13 21  1  0
M  END
> <COMPOUND_ID>
DNDI1417785

$$$$

  SciTegic04051205032D

 28 31  0  0  0  0            999 V2000
    7.0962   -8.4880    0.0000 C   0  0
    6.3169   -8.7463    0.0000 N   0  0
    7.1003   -7.6421    0.0000 C   0  0
    5.8418   -8.0629    0.0000 N   0  0
    7.7963   -8.8963    0.0000 N   0  0
    7.7963   -7.2295    0.0000 C   0  0
    8.5005   -7.6421    0.0000 N   0  0
    8.5005   -8.4797    0.0000 C   0  0
    6.3211   -7.3836    0.0000 C   0  0
   10.7049   -6.3294    0.0000 N   0  0
    6.0626   -9.5298    0.0000 C   0  0
    7.7921   -6.4002    0.0000 N   0  0
    9.9506   -5.9876    0.0000 C   0  0
    9.2089   -8.8963    0.0000 C   0  0
    9.2297   -6.4044    0.0000 C   0  0
    8.5130   -5.9876    0.0000 C   0  0
   11.2592   -5.7209    0.0000 C   0  0
   10.8717   -7.1420    0.0000 C   0  0
   10.8467   -5.0000    0.0000 C   0  0
   10.0340   -5.1667    0.0000 C   0  0
    9.9131   -8.4880    0.0000 C   0  0
    5.2542   -9.7006    0.0000 C   0  0
    6.6127  -10.1382    0.0000 C   0  0
   10.6174   -8.9047    0.0000 C   0  0
    9.9173   -7.6754    0.0000 C   0  0
    5.0000  -10.4882    0.0000 C   0  0
    6.3627  -10.9258    0.0000 C   0  0
    5.5543  -11.1008    0.0000 C   0  0
  2  1  1  0
  3  1  2  0
  4  2  1  0
  5  1  1  0
  6  3  1  0
  7  8  1  0
  8  5  2  0
  9  3  1  0
 10 13  1  0
 11  2  1  0
 12  6  1  0
 13 15  1  0
 14  8  1  0
 15 16  1  0
 16 12  1  0
 17 10  1  0
 18 10  1  0
 19 20  1  0
 20 13  1  0
 21 14  1  0
 22 11  2  0
 23 11  1  0
 24 21  1  0
 25 21  1  0
 26 22  1  0
 27 23  2  0
 28 27  1  0
  4  9  2  0
  7  6  2  0
 28 26  2  0
 19 17  1  0
M  END
> <COMPOUND_ID>
DNDI1417786

$$$$

  SciTegic04051205032D

 27 30  0  0  0  0            999 V2000
    7.9186   -6.4612    0.0000 C   0  0
    7.9109   -7.8994    0.0000 N   0  0
    6.7220   -5.7018    0.0000 S   0  0
    7.5657   -5.7018    0.0000 C   0  0
    8.6472   -9.2877    0.0000 N   0  0
    7.5312   -7.1515    0.0000 C   0  0
    6.2963   -6.4267    0.0000 C   0  0
    6.2580   -7.8649    0.0000 C   0  0
    6.6990   -7.1515    0.0000 C   0  0
    5.4142   -7.8418    0.0000 C   0  0
    5.0345   -7.0940    0.0000 C   0  0
    7.4699   -8.5667    0.0000 C   0  0
    8.6702   -7.9109    0.0000 C   0  0
    7.8381   -9.2877    0.0000 C   0  0
    9.0768   -8.6472    0.0000 C   0  0
    5.4526   -6.3768    0.0000 C   0  0
    9.0499  -10.0509    0.0000 C   0  0
    8.7508   -6.4842    0.0000 C   0  0
    9.0768  -11.4622    0.0000 O   0  0
    7.9684   -5.0268    0.0000 C   0  0
    6.6376   -8.5782    0.0000 C   0  0
    5.0000   -8.5437    0.0000 C   0  0
    8.6357  -10.7374    0.0000 C   0  0
    9.2149   -5.7709    0.0000 C   0  0
    8.8122   -5.0000    0.0000 C   0  0
    6.2004   -9.2647    0.0000 C   0  0
    5.3567   -9.2647    0.0000 C   0  0
  2  6  1  0
  3  4  1  0
  4  1  1  0
  5 15  1  0
  6  1  1  0
  7  3  1  0
  8  9  1  0
  9  7  2  0
 10 11  1  0
 11 16  2  0
 12  2  1  0
 13  2  1  0
 14 12  1  0
 15 13  1  0
 16  7  1  0
 17  5  1  0
 18  1  2  0
 19 23  1  0
 20  4  2  0
 21  8  2  0
 22 10  2  0
 23 17  1  0
 24 18  1  0
 25 24  2  0
 26 21  1  0
 27 22  1  0
 25 20  1  0
  5 14  1  0
 10  8  1  0
 27 26  2  0
M  END
> <COMPOUND_ID>
DNDI1417787

$$$$

  SciTegic04051205032D

 27 30  0  0  0  0            999 V2000
    8.7116   -9.9293    0.0000 C   0  0
   10.1336   -9.9293    0.0000 C   0  0
    9.4371  -10.3194    0.0000 C   0  0
    9.4371   -8.6861    0.0000 C   0  0
   10.1336   -9.1127    0.0000 C   0  0
    8.7116   -9.1127    0.0000 C   0  0
    7.2897   -9.9293    0.0000 N   0  0
    8.0007  -10.3194    0.0000 C   0  0
   10.8409  -10.3194    0.0000 N   0  0
    9.4371   -7.8548    0.0000 C   0  0
   10.1518   -7.4282    0.0000 S   0  0
    6.5969  -10.3487    0.0000 C   0  0
    7.2897   -9.1127    0.0000 C   0  0
    9.4371  -11.1362    0.0000 O   0  0
   10.1518   -6.6333    0.0000 C   0  0
    5.8641   -9.9804    0.0000 C   0  0
    6.5787   -8.7152    0.0000 C   0  0
    5.8641   -9.1418    0.0000 C   0  0
   10.8409   -8.6861    0.0000 C   0  0
   11.5591   -9.9293    0.0000 C   0  0
   10.8809   -6.2286    0.0000 C   0  0
    9.4590   -6.2286    0.0000 C   0  0
    5.0000   -8.6715    0.0000 C   0  0
   11.5591   -9.1127    0.0000 C   0  0
    9.4590   -5.4047    0.0000 C   0  0
   10.8809   -5.4047    0.0000 C   0  0
   10.1518   -5.0000    0.0000 C   0  0
  2  3  1  0
  3  1  2  0
  4  6  2  0
  5  2  1  0
  6  1  1  0
  7  8  1  0
  8  1  1  0
  9  2  2  0
 10  4  1  0
 11 10  1  0
 12  7  1  0
 13  7  1  0
 14  3  1  0
 15 11  1  0
 16 12  1  0
 17 13  1  0
 18 17  1  0
 19  5  2  0
 20  9  1  0
 21 15  2  0
 22 15  1  0
 23 18  1  0
 24 20  2  0
 25 22  2  0
 26 21  1  0
 27 26  2  0
  4  5  1  0
 24 19  1  0
 18 16  1  0
 27 25  1  0
M  END
> <COMPOUND_ID>
DNDI1417788

$$$$

  SciTegic04051205032D

 27 29  0  0  0  0            999 V2000
    7.4859   -6.6030    0.0000 C   0  0
    8.2095   -8.6699    0.0000 C   0  0
    8.2095   -7.8499    0.0000 N   0  0
    7.4859   -7.4231    0.0000 C   0  0
    8.2133   -6.1911    0.0000 C   0  0
    9.6493   -6.1911    0.0000 N   0  0
    7.4859   -9.0856    0.0000 C   0  0
    8.9257   -6.6030    0.0000 N   0  0
   10.3507   -6.6104    0.0000 C   0  0
    8.9220   -9.0856    0.0000 O   0  0
   11.0854   -5.4008    0.0000 N   0  0
    8.2133   -5.3636    0.0000 O   0  0
    6.7661   -8.6699    0.0000 C   0  0
    7.4859   -9.9056    0.0000 C   0  0
   11.0631   -6.2208    0.0000 C   0  0
    6.0425   -9.9056    0.0000 C   0  0
    6.0425   -9.0856    0.0000 C   0  0
    6.7661  -10.3175    0.0000 C   0  0
    5.3300  -10.3064    0.0000 Cl  0  0
    6.7661   -6.1911    0.0000 C   0  0
    6.7661   -7.8499    0.0000 C   0  0
   11.7979   -5.0000    0.0000 C   0  0
   11.7756   -6.6253    0.0000 C   0  0
    6.0536   -6.6030    0.0000 C   0  0
    6.0536   -7.4231    0.0000 C   0  0
   12.5103   -5.4081    0.0000 C   0  0
   12.4881   -6.2245    0.0000 C   0  0
  2  3  1  0
  3  4  1  0
  4  1  2  0
  5  1  1  0
  6  8  1  0
  7  2  1  0
  8  5  1  0
  9  6  2  0
 10  2  2  0
 11 15  1  0
 12  5  2  0
 13  7  2  0
 14  7  1  0
 15  9  1  0
 16 18  1  0
 17 13  1  0
 18 14  2  0
 19 16  1  0
 20  1  1  0
 21  4  1  0
 22 11  2  0
 23 15  2  0
 24 20  2  0
 25 24  1  0
 26 27  2  0
 27 23  1  0
 25 21  2  0
 16 17  2  0
 26 22  1  0
M  END
> <COMPOUND_ID>
DNDI1417789

$$$$

  SciTegic04051205032D

 27 30  0  0  0  0            999 V2000
    7.2099   -6.3074    0.0000 C   0  0
    6.4053   -5.2419    0.0000 N   0  0
    7.1012   -5.5464    0.0000 C   0  0
    7.9139   -6.6065    0.0000 C   0  0
    5.7910   -5.7149    0.0000 C   0  0
    6.6065   -6.7722    0.0000 C   0  0
    8.0118   -7.3621    0.0000 C   0  0
    5.8916   -6.4842    0.0000 N   0  0
    8.8082   -7.6883    0.0000 C   0  0
   10.2788   -7.4980    0.0000 C   0  0
    9.4878   -7.1718    0.0000 C   0  0
    7.4056   -7.8188    0.0000 C   0  0
    8.9170   -8.5391    0.0000 C   0  0
   10.9610   -6.9788    0.0000 C   0  0
    6.7071   -7.5225    0.0000 C   0  0
   10.3902   -8.3461    0.0000 C   0  0
    9.7080   -8.8680    0.0000 C   0  0
    7.8188   -5.0000    0.0000 N   0  0
    5.0000   -5.3099    0.0000 N   0  0
   11.7520   -7.3159    0.0000 C   0  0
   10.8523   -6.1280    0.0000 C   0  0
   12.3256   -5.9378    0.0000 C   0  0
    9.8140   -9.7188    0.0000 Cl  0  0
    8.5337   -6.0683    0.0000 C   0  0
   11.5319   -5.6061    0.0000 C   0  0
   12.4343   -6.7940    0.0000 C   0  0
   13.0051   -5.4186    0.0000 F   0  0
  2  3  2  0
  3  1  1  0
  4  1  1  0
  5  2  1  0
  6  1  2  0
  7  4  2  0
  8  6  1  0
  9  7  1  0
 10 11  1  0
 11  9  2  0
 12  7  1  0
 13  9  1  0
 14 10  1  0
 15  6  1  0
 16 17  1  0
 17 13  2  0
 18  3  1  0
 19  5  1  0
 20 14  1  0
 21 14  2  0
 22 25  2  0
 23 17  1  0
 24  4  1  0
 25 21  1  0
 26 20  2  0
 27 22  1  0
 12 15  2  0
  5  8  2  0
 16 10  2  0
 22 26  1  0
M  END
> <COMPOUND_ID>
DNDI1417790

$$$$

  SciTegic04051205032D

 23 24  0  0  0  0            999 V2000
    7.8364   -6.4884    0.0000 C   0  0
    8.5456   -6.9066    0.0000 C   0  0
    7.1273   -6.9066    0.0000 C   0  0
   10.0410   -6.8566    0.0000 N   0  0
   10.7501   -6.4566    0.0000 C   0  0
    9.3319   -6.4566    0.0000 O   0  0
    7.8364   -5.6702    0.0000 C   0  0
    6.4182   -6.4748    0.0000 C   0  0
   11.4592   -6.8566    0.0000 C   0  0
    8.5319   -7.7976    0.0000 O   0  0
   12.1683   -6.4566    0.0000 C   0  0
   11.4592   -7.6748    0.0000 C   0  0
   10.7501   -5.6384    0.0000 N   0  0
    6.4182   -5.6566    0.0000 C   0  0
    7.1410   -5.2702    0.0000 C   0  0
    7.1273   -7.7248    0.0000 O   0  0
   12.8775   -7.6748    0.0000 C   0  0
   12.8775   -6.8566    0.0000 C   0  0
   12.1683   -8.0930    0.0000 C   0  0
   13.5866   -8.0930    0.0000 Br  0  0
    5.7091   -5.2475    0.0000 O   0  0
    6.4046   -8.1112    0.0000 C   0  0
    5.0000   -5.6520    0.0000 C   0  0
  2  1  1  0
  3  1  1  0
  4  6  1  0
  5  4  2  0
  6  2  1  0
  7  1  2  0
  8  3  2  0
  9  5  1  0
 10  2  2  0
 11  9  2  0
 12  9  1  0
 13  5  1  0
 14 15  2  0
 15  7  1  0
 16  3  1  0
 17 19  1  0
 18 11  1  0
 19 12  2  0
 20 17  1  0
 21 14  1  0
 22 16  1  0
 23 21  1  0
 14  8  1  0
 17 18  2  0
M  END
> <COMPOUND_ID>
DNDI1417791

$$$$

  SciTegic04051205032D

 25 28  0  0  0  0            999 V2000
    8.7509   -8.4698    0.0000 C   0  0
    7.9038   -8.4957    0.0000 C   0  0
    9.1318   -7.7559    0.0000 N   0  0
    7.5005   -7.7743    0.0000 N   0  0
    8.7139   -7.0605    0.0000 C   0  0
    7.8705   -7.0605    0.0000 C   0  0
    9.0024   -9.2577    0.0000 N   0  0
    7.6485   -9.2799    0.0000 N   0  0
    8.3328   -9.7423    0.0000 O   0  0
    9.1429   -6.3650    0.0000 N   0  0
    7.4636   -6.3650    0.0000 N   0  0
   11.2514   -5.7066    0.0000 C   0  0
   10.4191   -5.6807    0.0000 C   0  0
    9.9641   -6.3872    0.0000 C   0  0
   11.6658   -6.4242    0.0000 C   0  0
   11.2181   -7.1493    0.0000 C   0  0
   11.6806   -5.0000    0.0000 Cl  0  0
   10.3933   -7.1160    0.0000 C   0  0
   12.4907   -6.4242    0.0000 Cl  0  0
    6.6424   -6.3650    0.0000 C   0  0
    6.2132   -5.6585    0.0000 C   0  0
    6.2465   -7.0716    0.0000 C   0  0
    5.4142   -7.0827    0.0000 C   0  0
    5.4031   -5.6696    0.0000 C   0  0
    5.0000   -6.3761    0.0000 C   0  0
  2  1  1  0
  3  1  1  0
  4  2  1  0
  5  3  2  0
  6  4  2  0
  7  1  2  0
  8  2  2  0
  9  7  1  0
 10  5  1  0
 11  6  1  0
 12 13  2  0
 13 14  1  0
 14 10  1  0
 15 16  2  0
 16 18  1  0
 17 12  1  0
 18 14  2  0
 19 15  1  0
 20 11  1  0
 21 20  1  0
 22 20  1  0
 23 22  1  0
 24 21  1  0
 25 23  1  0
  9  8  1  0
  6  5  1  0
 15 12  1  0
 25 24  1  0
M  END
> <COMPOUND_ID>
DNDI1417792

$$$$

  SciTegic04051205032D

 25 25  0  0  0  0            999 V2000
    7.1457   -6.2448    0.0000 C   0  0
    6.4339   -6.6540    0.0000 C   0  0
    7.1457   -5.4161    0.0000 C   0  0
    7.8575   -6.6643    0.0000 C   0  0
    5.7186   -6.2448    0.0000 N   0  0
    9.2810   -7.4930    0.0000 C   0  0
    6.4339   -5.0069    0.0000 C   0  0
    7.8575   -7.4930    0.0000 C   0  0
    5.7186   -5.4161    0.0000 C   0  0
    8.5692   -7.9022    0.0000 C   0  0
    9.2776   -9.9688    0.0000 C   0  0
    8.5692   -8.7309    0.0000 S   0  0
    6.4339   -7.4724    0.0000 O   0  0
    8.5761   -6.2517    0.0000 O   0  0
    8.5692  -10.3780    0.0000 O   0  0
    9.9928  -10.3711    0.0000 O   0  0
    9.9928   -7.0769    0.0000 F   0  0
    9.6937   -8.2117    0.0000 F   0  0
    8.8649   -6.7709    0.0000 F   0  0
    9.2810   -9.1435    0.0000 C   0  0
    7.8643   -5.0000    0.0000 C   0  0
    5.0000   -5.0000    0.0000 C   0  0
    9.9928  -11.2032    0.0000 C   0  0
   10.7046  -11.6090    0.0000 C   0  0
    9.2810  -11.6090    0.0000 C   0  0
  2  1  1  0
  3  1  2  0
  4  1  1  0
  5  2  1  0
  6 10  1  0
  7  3  1  0
  8  4  1  0
  9  7  2  0
 10  8  1  0
 11 20  1  0
 12 10  1  0
 13  2  2  0
 14  4  2  0
 15 11  2  0
 16 11  1  0
 17  6  1  0
 18  6  1  0
 19  6  1  0
 20 12  1  0
 21  3  1  0
 22  9  1  0
 23 16  1  0
 24 23  1  0
 25 23  1  0
  9  5  1  0
M  END
> <COMPOUND_ID>
DNDI1417793

$$$$

  SciTegic04051205032D

 26 28  0  0  0  0            999 V2000
    8.5766   -5.7147    0.0000 S   0  0
    5.4398   -7.8483    0.0000 C   0  0
    5.1031   -7.0856    0.0000 N   0  0
    9.2912   -6.1270    0.0000 C   0  0
    6.2575   -7.7589    0.0000 S   0  0
    5.0275   -8.5595    0.0000 N   0  0
    6.4327   -6.9516    0.0000 C   0  0
    7.8654   -5.3024    0.0000 N   0  0
    5.7181   -6.5393    0.0000 C   0  0
    8.1644   -6.4259    0.0000 O   0  0
    8.9889   -5.0000    0.0000 O   0  0
    7.1439   -6.5393    0.0000 C   0  0
    5.4398   -9.2741    0.0000 C   0  0
    7.1439   -5.7147    0.0000 C   0  0
    9.2912   -6.9516    0.0000 C   0  0
    5.0275   -9.9853    0.0000 O   0  0
    5.7181   -5.7147    0.0000 C   0  0
    6.4327   -5.3024    0.0000 C   0  0
    8.5766   -7.3672    0.0000 F   0  0
   10.0024   -5.7147    0.0000 C   0  0
    6.2643   -9.2741    0.0000 C   0  0
   10.0024   -7.3672    0.0000 C   0  0
   10.7206   -6.1270    0.0000 C   0  0
    6.6766   -8.5595    0.0000 C   0  0
   10.7206   -6.9516    0.0000 C   0  0
    5.0000   -5.3024    0.0000 H   0  0
  2  5  1  0
  3  9  1  0
  4  1  1  0
  5  7  1  0
  6  2  1  0
  7 12  2  0
  8  1  1  0
  9 17  2  0
 10  1  2  0
 11  1  2  0
 12 14  1  0
 13  6  1  0
 14  8  1  0
 15  4  2  0
 16 13  2  0
 17 18  1  0
 18 14  2  0
 19 15  1  0
 20  4  1  0
 21 13  1  0
 22 15  1  0
 23 20  2  0
 24 21  1  0
 25 23  1  0
 22 25  2  0
  7  9  1  0
  3  2  2  0
 26 17  1  0
M  END
> <COMPOUND_ID>
DNDI1417794

$$$$

  SciTegic04051205032D

 28 30  0  0  0  0            999 V2000
    9.2887   -9.1157    0.0000 C   0  0
   10.0127   -8.7014    0.0000 N   0  0
   10.0127   -5.4143    0.0000 C   0  0
    8.5854   -8.6878    0.0000 C   0  0
   10.0127   -6.2497    0.0000 C   0  0
    9.2887   -9.9216    0.0000 O   0  0
    7.1338   -7.8660    0.0000 C   0  0
   10.7160   -5.0000    0.0000 O   0  0
    8.5854   -7.8660    0.0000 C   0  0
    7.8615   -9.1157    0.0000 C   0  0
    7.1338   -8.7014    0.0000 C   0  0
    7.8615   -7.4745    0.0000 C   0  0
   10.0127   -7.8888    0.0000 C   0  0
    9.2887   -6.6413    0.0000 C   0  0
   10.7389   -6.6413    0.0000 C   0  0
    6.4296   -7.4449    0.0000 C   0  0
    9.2887   -5.0000    0.0000 O   0  0
    9.2887   -7.4745    0.0000 C   0  0
   10.7389   -7.4745    0.0000 C   0  0
    5.7277   -7.8660    0.0000 C   0  0
    6.4296   -6.6413    0.0000 C   0  0
    8.5626   -5.4143    0.0000 C   0  0
    7.8615   -5.0296    0.0000 C   0  0
    7.1512   -5.4454    0.0000 C   0  0
    6.4516   -5.0296    0.0000 C   0  0
    5.7277   -6.2202    0.0000 C   0  0
    5.0000   -7.4449    0.0000 C   0  0
    5.0000   -6.6413    0.0000 C   0  0
  2  1  1  0
  3  5  1  0
  4  1  1  0
  5 15  2  0
  6  1  2  0
  7 11  1  0
  8  3  2  0
  9  4  2  0
 10  4  1  0
 11 10  2  0
 12  9  1  0
 13  2  1  0
 14 18  2  0
 15 19  1  0
 16  7  1  0
 17  3  1  0
 18 13  1  0
 19 13  2  0
 20 16  1  0
 21 16  1  0
 22 17  1  0
 23 22  1  0
 24 23  1  0
 25 24  1  0
 26 21  1  0
 27 20  1  0
 28 26  1  0
 12  7  2  0
 14  5  1  0
 27 28  1  0
M  END
> <COMPOUND_ID>
DNDI1417795

$$$$

  SciTegic04051205032D

 28 30  0  0  0  0            999 V2000
    7.6951   -6.9285    0.0000 C   0  0
    7.4372   -6.1413    0.0000 N   0  0
    7.0247   -7.4029    0.0000 N   0  0
    8.4719   -7.1760    0.0000 C   0  0
    6.3578   -6.9285    0.0000 C   0  0
    6.6122   -6.1413    0.0000 C   0  0
    9.0906   -6.6294    0.0000 N   0  0
    9.9088   -6.5641    0.0000 C   0  0
    8.6472   -7.9907    0.0000 C   0  0
   10.3832   -7.2413    0.0000 O   0  0
    7.0247   -8.2347    0.0000 C   0  0
    9.4310   -8.2382    0.0000 C   0  0
    5.5500   -7.0969    0.0000 C   0  0
    6.0622   -5.5294    0.0000 C   0  0
   10.2594   -5.8147    0.0000 C   0  0
   11.0844   -5.7425    0.0000 O   0  0
   10.0429   -7.6916    0.0000 C   0  0
    9.5994   -9.0529    0.0000 C   0  0
   11.4316   -5.0000    0.0000 C   0  0
    7.7431   -8.6472    0.0000 C   0  0
    7.0006   -9.8710    0.0000 C   0  0
    7.7225   -9.4757    0.0000 C   0  0
    5.0000   -6.4884    0.0000 C   0  0
    5.2613   -5.6910    0.0000 C   0  0
    6.9869  -10.7029    0.0000 C   0  0
   10.8198   -7.9391    0.0000 C   0  0
   10.3832   -9.3004    0.0000 C   0  0
   10.9951   -8.7504    0.0000 C   0  0
  2  1  2  0
  3  1  1  0
  4  1  1  0
  5  3  1  0
  6  2  1  0
  7  4  1  0
  8  7  1  0
  9  4  1  0
 10  8  2  0
 11  3  1  0
 12  9  1  0
 13  5  1  0
 14  6  1  0
 15  8  1  0
 16 15  1  0
 17 12  1  0
 18 12  2  0
 19 16  1  0
 20 11  1  0
 21 22  1  0
 22 20  1  0
 23 13  2  0
 24 14  2  0
 25 21  1  0
 26 17  2  0
 27 18  1  0
 28 27  2  0
  6  5  2  0
 23 24  1  0
 28 26  1  0
M  END
> <COMPOUND_ID>
DNDI1417796

$$$$

  SciTegic04051205032D

 28 31  0  0  0  0            999 V2000
    9.2879  -10.3607    0.0000 C   0  0
    6.4339   -8.7102    0.0000 C   0  0
    8.5727   -9.9480    0.0000 N   0  0
    6.4339   -7.8884    0.0000 C   0  0
    7.1456   -9.1228    0.0000 N   0  0
    5.7187   -7.4758    0.0000 C   0  0
    5.7187   -9.1228    0.0000 N   0  0
    9.9997   -9.9480    0.0000 N   0  0
    5.7187   -6.6505    0.0000 C   0  0
    5.0000   -7.8884    0.0000 N   0  0
    5.0000   -8.7102    0.0000 C   0  0
    9.2879  -11.1859    0.0000 O   0  0
    7.8609  -10.3607    0.0000 C   0  0
    8.5727   -9.1228    0.0000 C   0  0
    7.1456   -9.9480    0.0000 C   0  0
    7.8609   -8.7102    0.0000 C   0  0
    6.4339   -6.2379    0.0000 C   0  0
    9.9997   -9.1228    0.0000 C   0  0
    5.0000   -6.2379    0.0000 C   0  0
    7.1456   -6.6505    0.0000 C   0  0
    6.4339   -5.4126    0.0000 C   0  0
   10.7183   -8.7102    0.0000 C   0  0
    9.2879   -8.7102    0.0000 C   0  0
    5.0000   -5.4126    0.0000 C   0  0
    5.7187   -5.0000    0.0000 C   0  0
   10.7183   -7.8884    0.0000 C   0  0
    9.2879   -7.8884    0.0000 C   0  0
    9.9997   -7.4758    0.0000 C   0  0
  2  5  1  0
  3  1  1  0
  4  2  1  0
  5 16  1  0
  6  4  2  0
  7  2  2  0
  8  1  1  0
  9  6  1  0
 10 11  2  0
 11  7  1  0
 12  1  2  0
 13  3  1  0
 14  3  1  0
 15 13  1  0
 16 14  1  0
 17  9  2  0
 18  8  1  0
 19  9  1  0
 20 17  1  0
 21 17  1  0
 22 18  1  0
 23 18  1  0
 24 19  2  0
 25 24  1  0
 26 22  1  0
 27 23  1  0
 28 27  1  0
 15  5  1  0
 28 26  1  0
  6 10  1  0
 21 25  2  0
M  END
> <COMPOUND_ID>
DNDI1417797

$$$$

  SciTegic04051205032D

 28 31  0  0  0  0            999 V2000
    6.6434   -6.9538    0.0000 C   0  0
    7.4104   -6.9538    0.0000 N   0  0
    6.2600   -7.6112    0.0000 N   0  0
    7.7938   -7.6112    0.0000 C   0  0
    6.2600   -6.3102    0.0000 N   0  0
    7.3967   -8.2823    0.0000 C   0  0
    6.6297   -8.2823    0.0000 C   0  0
    8.5471   -7.6112    0.0000 N   0  0
    6.6662   -9.6518    0.0000 N   0  0
    9.5559  -10.7520    0.0000 C   0  0
    6.2600   -8.9396    0.0000 N   0  0
   10.3229  -11.1903    0.0000 N   0  0
    9.5559   -9.9303    0.0000 C   0  0
    8.8347  -11.1629    0.0000 C   0  0
    7.5747   -9.6518    0.0000 C   0  0
    8.1225   -9.9303    0.0000 C   0  0
    8.1225  -10.7520    0.0000 C   0  0
    8.8347   -9.5195    0.0000 C   0  0
    5.5158   -6.4517    0.0000 C   0  0
    6.4882   -5.5752    0.0000 C   0  0
    8.9442   -8.2595    0.0000 C   0  0
    8.9168   -6.9447    0.0000 C   0  0
   10.9802  -11.6787    0.0000 C   0  0
   10.9802  -10.4781    0.0000 C   0  0
    5.9861   -5.0000    0.0000 C   0  0
    5.0000   -5.8765    0.0000 C   0  0
    9.6838   -6.9310    0.0000 C   0  0
    9.7112   -8.2458    0.0000 C   0  0
  2  1  1  0
  3  1  2  0
  4  2  2  0
  5  1  1  0
  6  7  2  0
  7  3  1  0
  8  4  1  0
  9 11  1  0
 10 13  2  0
 11  7  1  0
 12 10  1  0
 13 18  1  0
 14 17  2  0
 15  9  2  0
 16 15  1  0
 17 16  1  0
 18 16  2  0
 19  5  1  0
 20  5  1  0
 21  8  1  0
 22  8  1  0
 23 12  1  0
 24 12  1  0
 25 20  1  0
 26 19  1  0
 27 22  1  0
 28 21  1  0
 25 26  1  0
  6  4  1  0
 28 27  1  0
 14 10  1  0
M  END
> <COMPOUND_ID>
DNDI1417798

$$$$

  SciTegic04051205032D

 27 30  0  0  0  0            999 V2000
    9.6982   -7.1038    0.0000 N   0  0
    9.2118   -6.4385    0.0000 C   0  0
   10.4881   -6.8418    0.0000 C   0  0
    9.6940   -5.7650    0.0000 S   0  0
   10.4840   -6.0187    0.0000 C   0  0
    8.3844   -6.4427    0.0000 N   0  0
   11.1990   -7.2617    0.0000 C   0  0
    9.6898   -7.9310    0.0000 C   0  0
    5.4950   -5.7109    0.0000 N   0  0
   11.9058   -6.8501    0.0000 C   0  0
   11.1907   -8.0849    0.0000 C   0  0
    7.9728   -5.7234    0.0000 C   0  0
   12.6126   -8.0891    0.0000 C   0  0
   11.8975   -8.4965    0.0000 C   0  0
   12.6126   -7.2617    0.0000 C   0  0
   13.3235   -8.5007    0.0000 O   0  0
    7.1455   -5.7193    0.0000 C   0  0
    5.8982   -6.4302    0.0000 C   0  0
    5.9066   -5.0000    0.0000 C   0  0
   10.4008   -8.3426    0.0000 C   0  0
    8.9706   -8.3302    0.0000 C   0  0
   13.3235   -9.3239    0.0000 C   0  0
    6.7256   -6.4343    0.0000 C   0  0
    6.7339   -5.0042    0.0000 C   0  0
   10.3967   -9.1658    0.0000 C   0  0
    8.9664   -9.1575    0.0000 C   0  0
    9.6733   -9.5774    0.0000 C   0  0
  2  1  1  0
  3  1  1  0
  4  2  1  0
  5  3  2  0
  6  2  2  0
  7  3  1  0
  8  1  1  0
  9 18  1  0
 10  7  1  0
 11  7  2  0
 12  6  1  0
 13 15  1  0
 14 11  1  0
 15 10  2  0
 16 13  1  0
 17 12  1  0
 18 23  1  0
 19 24  1  0
 20  8  1  0
 21  8  2  0
 22 16  1  0
 23 17  1  0
 24 17  1  0
 25 20  2  0
 26 21  1  0
 27 25  1  0
  4  5  1  0
 27 26  2  0
 13 14  2  0
  9 19  1  0
M  END
> <COMPOUND_ID>
DNDI1417799

$$$$

  SciTegic04051205032D

 27 30  0  0  0  0            999 V2000
    7.7684   -7.0325    0.0000 C   0  0
    7.0450   -7.4465    0.0000 C   0  0
    8.4752   -7.4465    0.0000 C   0  0
    7.0450   -8.2703    0.0000 N   0  0
    9.1861   -7.0533    0.0000 C   0  0
    6.3257   -8.6760    0.0000 C   0  0
    7.7727   -6.2170    0.0000 C   0  0
    9.1903   -6.2295    0.0000 C   0  0
    8.4878   -5.8155    0.0000 C   0  0
    6.3299   -7.0282    0.0000 C   0  0
    6.3131   -9.5166    0.0000 C   0  0
    9.8887   -7.4674    0.0000 N   0  0
    6.2044   -6.2002    0.0000 O   0  0
    5.6105   -8.2577    0.0000 O   0  0
    5.5854   -7.3963    0.0000 C   0  0
    5.3847   -6.0622    0.0000 C   0  0
    7.0199  -10.7586    0.0000 N   0  0
    5.0000   -6.8024    0.0000 C   0  0
    8.4627   -8.2703    0.0000 O   0  0
    8.5003   -5.0000    0.0000 Cl  0  0
    7.0199   -9.9306    0.0000 C   0  0
    9.9055   -5.8280    0.0000 C   0  0
    5.5897   -9.9180    0.0000 C   0  0
   10.6038   -7.0659    0.0000 C   0  0
    6.2922  -11.1684    0.0000 C   0  0
   10.6080   -6.2421    0.0000 C   0  0
    5.5854  -10.7461    0.0000 C   0  0
  2  1  1  0
  3  1  2  0
  4  2  1  0
  5  3  1  0
  6  4  1  0
  7  1  1  0
  8  9  1  0
  9  7  2  0
 10  2  1  0
 11  6  1  0
 12  5  2  0
 13 10  1  0
 14  6  2  0
 15 10  2  0
 16 13  1  0
 17 21  2  0
 18 15  1  0
 19  3  1  0
 20  9  1  0
 21 11  1  0
 22  8  2  0
 23 11  2  0
 24 12  1  0
 25 27  2  0
 26 22  1  0
 27 23  1  0
  5  8  1  0
 16 18  2  0
 26 24  2  0
 17 25  1  0
M  END
> <COMPOUND_ID>
DNDI1417800

$$$$

  SciTegic04051205032D

 27 29  0  0  0  0            999 V2000
    8.7373   -7.1417    0.0000 C   0  0
    9.1352   -7.8634    0.0000 C   0  0
    9.1352   -6.4278    0.0000 C   0  0
    5.4330   -5.7100    0.0000 C   0  0
    8.7139   -5.7100    0.0000 N   0  0
    6.2445   -5.7100    0.0000 C   0  0
    8.7373   -8.5773    0.0000 C   0  0
    5.0156   -6.4278    0.0000 O   0  0
    9.9622   -7.8634    0.0000 O   0  0
    9.9622   -6.4278    0.0000 C   0  0
    6.6541   -5.0000    0.0000 C   0  0
    6.6541   -6.4278    0.0000 C   0  0
    7.9141   -8.5773    0.0000 C   0  0
    9.1586   -9.2834    0.0000 C   0  0
    7.9024   -5.7100    0.0000 C   0  0
    5.0000   -5.0000    0.0000 O   0  0
    7.9141  -10.0090    0.0000 C   0  0
    7.4928   -6.4278    0.0000 C   0  0
    7.4928   -5.0000    0.0000 C   0  0
    8.7450  -10.0090    0.0000 C   0  0
    7.5084   -9.2834    0.0000 C   0  0
    7.4967  -10.7112    0.0000 Cl  0  0
   10.3640   -5.7100    0.0000 C   0  0
   10.3835   -7.1417    0.0000 C   0  0
   11.1950   -7.1417    0.0000 C   0  0
   11.1950   -5.7100    0.0000 C   0  0
   11.6123   -6.4278    0.0000 C   0  0
  2  1  1  0
  3  1  1  0
  4  6  1  0
  5  3  1  0
  6 11  1  0
  7  2  1  0
  8  4  2  0
  9  2  2  0
 10  3  1  0
 11 19  2  0
 12 18  1  0
 13  7  2  0
 14  7  1  0
 15  5  1  0
 16  4  1  0
 17 20  1  0
 18 15  2  0
 19 15  1  0
 20 14  2  0
 21 13  1  0
 22 17  1  0
 23 10  2  0
 24 10  1  0
 25 24  2  0
 26 23  1  0
 27 25  1  0
 21 17  2  0
 26 27  2  0
  6 12  2  0
M  END
> <COMPOUND_ID>
DNDI1417801

$$$$

  SciTegic04051205032D

 26 28  0  0  0  0            999 V2000
   11.0858   -5.8641    0.0000 C   0  0
    7.0979   -8.1696    0.0000 C   0  0
    6.3252   -7.8705    0.0000 C   0  0
    7.7417   -7.6462    0.0000 C   0  0
    8.5186   -7.9411    0.0000 C   0  0
   10.4378   -6.3958    0.0000 C   0  0
    9.3536   -9.9891    0.0000 C   0  0
    5.6480   -8.3192    0.0000 O   0  0
    8.6432   -8.7554    0.0000 S   0  0
    8.6889  -10.4834    0.0000 O   0  0
    9.1542   -7.4219    0.0000 C   0  0
    6.1133   -7.0605    0.0000 C   0  0
   10.0141  -10.4834    0.0000 C   0  0
    5.0000   -7.7916    0.0000 C   0  0
    8.9381  -11.2603    0.0000 C   0  0
    7.2432   -8.9880    0.0000 O   0  0
    5.2991   -7.0231    0.0000 C   0  0
    9.7855  -11.2478    0.0000 C   0  0
    9.6651   -6.0967    0.0000 C   0  0
   10.5831   -7.1976    0.0000 C   0  0
   11.0816   -5.0000    0.0000 F   0  0
   11.6798   -5.3988    0.0000 F   0  0
   11.9291   -6.0468    0.0000 F   0  0
    9.9351   -7.7210    0.0000 C   0  0
    9.0378   -6.6118    0.0000 C   0  0
    9.3536   -9.1874    0.0000 C   0  0
  2  4  1  0
  3  2  1  0
  4  5  1  0
  5 11  1  0
  6  1  1  0
  7 26  1  0
  8  3  1  0
  9  5  1  0
 10  7  1  0
 11 24  2  0
 12  3  2  0
 13  7  2  0
 14  8  1  0
 15 10  1  0
 16  2  2  0
 17 12  1  0
 18 13  1  0
 19  6  1  0
 20  6  2  0
 21  1  1  0
 22  1  1  0
 23  1  1  0
 24 20  1  0
 25 19  2  0
 26  9  1  0
 11 25  1  0
 18 15  2  0
 14 17  2  0
M  END
> <COMPOUND_ID>
DNDI1417802

$$$$

  SciTegic04051205032D

 28 30  0  0  0  0            999 V2000
    8.6050   -7.4953    0.0000 C   0  0
    7.8733   -7.9023    0.0000 C   0  0
    7.8733   -8.7212    0.0000 N   0  0
    9.3172   -7.9072    0.0000 C   0  0
    7.1514   -9.1282    0.0000 C   0  0
    7.1659   -7.4953    0.0000 C   0  0
   10.0246   -7.5002    0.0000 C   0  0
    8.6050   -6.6813    0.0000 C   0  0
    7.1659   -6.6667    0.0000 C   0  0
    6.4391   -6.2501    0.0000 C   0  0
   10.7418   -7.9072    0.0000 N   0  0
    5.7365   -6.6667    0.0000 C   0  0
    6.4391   -8.7163    0.0000 O   0  0
    6.4391   -7.9023    0.0000 C   0  0
   10.0246   -6.6813    0.0000 C   0  0
    9.3172   -6.2743    0.0000 C   0  0
    5.7365   -7.4953    0.0000 C   0  0
    7.1514   -9.9568    0.0000 C   0  0
    9.3172   -8.7358    0.0000 O   0  0
    6.4391   -5.4215    0.0000 O   0  0
    5.0145   -6.2501    0.0000 O   0  0
   11.4541   -7.4953    0.0000 C   0  0
   10.7418   -6.2597    0.0000 C   0  0
    6.4342  -10.3783    0.0000 C   0  0
    7.8636  -10.3880    0.0000 C   0  0
    7.1514   -5.0000    0.0000 C   0  0
    5.0000   -5.4215    0.0000 C   0  0
   11.4541   -6.6813    0.0000 C   0  0
  2  1  1  0
  3  2  1  0
  4  1  1  0
  5  3  1  0
  6  2  1  0
  7  4  2  0
  8  1  2  0
  9  6  1  0
 10  9  2  0
 11  7  1  0
 12 17  2  0
 13  5  2  0
 14  6  2  0
 15 16  2  0
 16  8  1  0
 17 14  1  0
 18  5  1  0
 19  4  1  0
 20 10  1  0
 21 12  1  0
 22 11  2  0
 23 15  1  0
 24 18  1  0
 25 18  1  0
 26 20  1  0
 27 21  1  0
 28 23  2  0
  7 15  1  0
 22 28  1  0
 12 10  1  0
M  END
> <COMPOUND_ID>
DNDI1417803

$$$$

  SciTegic04051205032D

 28 30  0  0  0  0            999 V2000
    6.3969   -9.2676    0.0000 N   0  3
    7.0832   -8.8615    0.0000 C   0  0
    7.0832  -10.4817    0.0000 C   0  0
    6.3969  -10.0797    0.0000 C   0  0
    7.7897   -9.2635    0.0000 C   0  0
    7.0832   -8.0616    0.0000 C   0  0
    7.0832  -11.2899    0.0000 C   0  0
    7.7897   -7.6596    0.0000 C   0  0
    6.3969  -11.6878    0.0000 C   0  0
    6.3969  -12.4837    0.0000 C   0  0
    5.7025  -10.4817    0.0000 C   0  0
    7.0832   -6.4413    0.0000 C   0  0
    7.7775   -6.8434    0.0000 C   0  0
    5.6944  -11.2899    0.0000 C   0  0
    7.0953  -12.8979    0.0000 O   0  0
    7.0832   -5.6373    0.0000 C   0  0
    5.6944   -8.8534    0.0000 C   0  0
    5.7025  -12.8979    0.0000 O   0  0
    8.1308   -8.5326    0.0000 C   0  0
    8.5694   -9.4747    0.0000 C   0  0
    6.3969   -6.8434    0.0000 O   0  0
    6.3969   -5.2475    0.0000 O   0  0
    8.4800   -5.6373    0.0000 C   0  0
    8.4800   -6.4413    0.0000 C   0  0
    7.7897   -5.2475    0.0000 C   0  0
    5.0000  -12.4959    0.0000 C   0  0
    6.3969   -7.6555    0.0000 C   0  0
    5.6944   -5.6373    0.0000 C   0  0
  2  1  2  0
  3  4  2  0
  4  1  1  0
  5  2  1  0
  6  2  1  0
  7  3  1  0
  8  6  2  0
  9 14  1  0
 10  9  1  0
 11  4  1  0
 12 13  1  0
 13  8  1  0
 14 11  2  0
 15 10  2  0
 16 12  2  0
 17  1  1  0
 18 10  1  0
 19  5  1  0
 20  5  1  0
 21 12  1  0
 22 16  1  0
 23 24  1  0
 24 13  2  0
 25 23  2  0
 26 18  1  0
 27 21  1  0
 28 22  1  0
  5  3  1  0
  7  9  2  0
 25 16  1  0
M  CHG  1   1   1
M  END
> <COMPOUND_ID>
DNDI1417804

$$$$

  SciTegic04051205032D

 27 29  0  0  0  0            999 V2000
    8.7202   -7.8640    0.0000 S   0  0
    7.8813   -7.8640    0.0000 C   0  0
    7.4652   -7.1420    0.0000 C   0  0
    6.6504   -7.1420    0.0000 C   0  0
    9.5454   -7.8640    0.0000 C   0  0
    8.7202   -8.6892    0.0000 O   0  0
    8.7202   -7.0423    0.0000 O   0  0
    7.4652   -8.5724    0.0000 C   0  0
    6.2343   -7.8640    0.0000 O   0  0
    6.2343   -6.4337    0.0000 C   0  0
    9.9546   -8.5895    0.0000 C   0  0
    9.9546   -7.1523    0.0000 C   0  0
   11.1923   -7.8813    0.0000 C   0  0
   10.7797   -7.1523    0.0000 C   0  0
   10.7797   -8.5895    0.0000 C   0  0
   12.0141   -7.8950    0.0000 O   0  0
    7.8813   -9.3012    0.0000 C   0  0
    6.6504   -8.5724    0.0000 C   0  0
    6.6504   -5.7152    0.0000 C   0  0
    5.4091   -6.4337    0.0000 C   0  0
   12.4025   -8.6067    0.0000 C   0  0
    7.4652  -10.0095    0.0000 C   0  0
    6.2343   -9.2806    0.0000 C   0  0
    6.2343   -5.0000    0.0000 C   0  0
    5.0000   -5.7152    0.0000 C   0  0
    6.6504   -9.9923    0.0000 C   0  0
    5.4091   -5.0000    0.0000 C   0  0
  2  1  1  0
  3  2  1  0
  4  3  1  0
  5  1  1  0
  6  1  2  0
  7  1  2  0
  8  2  1  0
  9  4  2  0
 10  4  1  0
 11  5  2  0
 12  5  1  0
 13 14  1  0
 14 12  2  0
 15 11  1  0
 16 13  1  0
 17  8  1  0
 18  8  2  0
 19 10  2  0
 20 10  1  0
 21 16  1  0
 22 17  2  0
 23 18  1  0
 24 19  1  0
 25 20  2  0
 26 23  2  0
 27 25  1  0
 15 13  2  0
 26 22  1  0
 24 27  2  0
M  END
> <COMPOUND_ID>
DNDI1417805

$$$$

  SciTegic04051205032D

 28 30  0  0  0  0            999 V2000
    9.4444   -7.8873    0.0000 N   0  0
    9.4444   -8.7088    0.0000 C   0  0
   10.1628   -7.4748    0.0000 C   0  0
   10.1628   -9.1213    0.0000 N   0  0
   10.1628   -9.9462    0.0000 C   0  0
    6.5914   -8.7088    0.0000 N   0  0
   10.8777   -7.8873    0.0000 O   0  0
   10.1628   -6.6499    0.0000 C   0  0
    8.7329   -9.1213    0.0000 N   0  0
   10.8777  -10.3587    0.0000 C   0  0
    5.1650   -7.8873    0.0000 O   0  0
    8.0247   -8.7088    0.0000 C   0  0
    7.3099   -9.1213    0.0000 C   0  0
    6.5914   -7.8873    0.0000 C   0  0
    5.8799   -9.1213    0.0000 C   0  0
    9.4444  -10.3587    0.0000 C   0  0
    5.1650   -8.7088    0.0000 C   0  0
    5.8799   -7.4748    0.0000 C   0  0
   11.5892   -9.9462    0.0000 C   0  0
   10.8777   -6.2374    0.0000 C   0  0
    9.4444   -6.2374    0.0000 C   0  0
   10.8777  -11.1836    0.0000 C   0  0
   11.5892   -9.1213    0.0000 C   0  0
    9.4444  -11.1836    0.0000 C   0  0
   10.1628  -11.5961    0.0000 C   0  0
   10.8777   -5.4125    0.0000 C   0  0
    9.4444   -5.4125    0.0000 C   0  0
   10.1628   -5.0000    0.0000 C   0  0
  2  1  1  0
  3  1  1  0
  4  2  2  0
  5  4  1  0
  6 13  1  0
  7  3  2  0
  8  3  1  0
  9  2  1  0
 10  5  1  0
 11 17  1  0
 12  9  1  0
 13 12  1  0
 14  6  1  0
 15  6  1  0
 16  5  2  0
 17 15  1  0
 18 14  1  0
 19 10  1  0
 20  8  1  0
 21  8  2  0
 22 10  2  0
 23 19  1  0
 24 16  1  0
 25 24  2  0
 26 20  2  0
 27 21  1  0
 28 27  2  0
 26 28  1  0
 25 22  1  0
 11 18  1  0
M  END
> <COMPOUND_ID>
DNDI1417806

$$$$

  SciTegic04051205032D

 29 32  0  0  0  0            999 V2000
    8.5294  -10.0643    0.0000 N   0  3
    7.9181  -10.6387    0.0000 N   0  0
    7.1874  -10.2297    0.0000 C   0  0
    7.3437   -9.3888    0.0000 C   0  0
    8.1939   -9.3014    0.0000 C   0  0
    8.6121   -8.5845    0.0000 C   0  0
    8.0055  -11.4659    0.0000 C   0  0
    6.4614  -10.5836    0.0000 C   0  0
    9.4484   -8.5845    0.0000 C   0  0
   10.6801   -6.4246    0.0000 C   0  0
   11.0661   -5.6802    0.0000 N   0  0
    9.3519  -10.2160    0.0000 C   0  0
   11.1028   -7.1507    0.0000 C   0  0
    9.8667   -6.4476    0.0000 C   0  0
    9.8667   -7.8676    0.0000 C   0  0
   10.6939   -7.8676    0.0000 C   0  0
    9.4622   -7.1645    0.0000 C   0  0
   10.6065   -5.0000    0.0000 C   0  0
   11.9071   -5.6617    0.0000 C   0  0
    8.7500  -11.7830    0.0000 C   0  0
    7.3437  -11.9668    0.0000 C   0  0
    5.7858  -10.1424    0.0000 C   0  0
    6.4062  -11.3740    0.0000 C   0  0
    7.4540  -12.7756    0.0000 C   0  0
    5.0551  -10.5055    0.0000 C   0  0
    5.6893  -11.7463    0.0000 C   0  0
    8.8556  -12.6010    0.0000 C   0  0
    8.1985  -13.1065    0.0000 C   0  0
    5.0000  -11.3051    0.0000 C   0  0
  2  1  1  0
  3  2  1  0
  4  5  1  0
  5  1  2  0
  6  5  1  0
  7  2  1  0
  8  3  1  0
  9  6  2  0
 10 14  1  0
 11 10  1  0
 12  1  1  0
 13 16  1  0
 14 17  2  0
 15  9  1  0
 16 15  2  0
 17 15  1  0
 18 11  1  0
 19 11  1  0
 20  7  1  0
 21  7  2  0
 22  8  2  0
 23  8  1  0
 24 21  1  0
 25 22  1  0
 26 23  2  0
 27 20  2  0
 28 24  2  0
 29 26  1  0
  3  4  2  0
 27 28  1  0
 10 13  2  0
 29 25  2  0
M  CHG  1   1   1
M  END
> <COMPOUND_ID>
DNDI1417807

$$$$

  SciTegic04051205032D

 27 30  0  0  0  0            999 V2000
    6.4250   -8.7189    0.0000 C   0  0
    7.1431   -9.1380    0.0000 N   0  0
    6.4250   -7.8974    0.0000 N   0  0
    6.4250  -12.8597    0.0000 C   0  0
    7.1431   -9.9623    0.0000 C   0  0
    6.4250  -13.6784    0.0000 C   0  0
    6.4250  -10.3869    0.0000 C   0  0
    5.7125   -9.9595    0.0000 C   0  0
    7.1347  -12.4434    0.0000 N   0  0
    5.7125   -9.1324    0.0000 C   0  0
    5.7628  -14.1730    0.0000 S   0  0
    6.4362   -6.2406    0.0000 N   0  0
    7.1347  -11.6108    0.0000 C   0  0
    6.4250  -11.2000    0.0000 C   0  0
    7.0928  -14.1646    0.0000 C   0  0
    5.7125  -12.4322    0.0000 O   0  0
    5.7125   -7.4783    0.0000 C   0  0
    7.1431   -7.4783    0.0000 C   0  0
    6.0254  -14.9525    0.0000 C   0  0
    6.8469  -14.9525    0.0000 C   0  0
    7.8556  -10.3702    0.0000 C   0  0
    7.1431   -6.6569    0.0000 C   0  0
    5.7209   -6.6569    0.0000 C   0  0
    7.8556  -11.2000    0.0000 C   0  0
    6.4362   -5.4163    0.0000 C   0  0
    5.0000  -10.3702    0.0000 C   0  0
    7.1431   -5.0000    0.0000 C   0  0
  2  1  2  0
  3  1  1  0
  4  9  1  0
  5  2  1  0
  6  4  1  0
  7  8  1  0
  8 10  2  0
  9 13  1  0
 10  1  1  0
 11  6  1  0
 12 22  1  0
 13 14  1  0
 14  7  2  0
 15  6  2  0
 16  4  2  0
 17  3  1  0
 18  3  1  0
 19 11  1  0
 20 15  1  0
 21  5  2  0
 22 18  1  0
 23 17  1  0
 24 21  1  0
 25 12  1  0
 26  8  1  0
 27 25  1  0
  7  5  1  0
 12 23  1  0
 13 24  2  0
 19 20  2  0
M  END
> <COMPOUND_ID>
DNDI1417808

$$$$

  SciTegic04051205032D

 28 30  0  0  0  0            999 V2000
    7.5905   -6.9771    0.0000 C   0  0
    7.1138   -7.6443    0.0000 C   0  0
    6.2931   -7.5739    0.0000 C   0  0
   11.8636   -9.4514    0.0000 C   0  0
    5.9492   -6.8278    0.0000 O   0  0
   12.5724   -9.8618    0.0000 N   0  0
    8.1749   -6.3885    0.0000 C   0  0
   11.8636   -8.6184    0.0000 C   0  0
   11.1466   -9.8618    0.0000 C   0  0
    5.8207   -8.2453    0.0000 C   0  0
   11.1466   -8.2080    0.0000 C   0  0
   10.4337   -9.4473    0.0000 C   0  0
    6.4217   -6.1564    0.0000 C   0  0
    9.0162   -8.6266    0.0000 N   0  0
   10.4379   -8.6184    0.0000 C   0  0
    7.2423   -6.2310    0.0000 C   0  0
    8.3075   -7.3874    0.0000 C   0  0
    9.7291   -8.2080    0.0000 C   0  0
   13.1485   -9.2774    0.0000 C   0  0
   13.2811  -10.2721    0.0000 C   0  0
    7.9511   -5.5927    0.0000 C   0  0
    8.9789   -6.5999    0.0000 C   0  0
    8.2992   -8.2080    0.0000 C   0  0
    5.0000   -8.1790    0.0000 C   0  0
    6.1688   -8.9996    0.0000 C   0  0
    9.5551   -6.0072    0.0000 C   0  0
    8.5355   -5.0000    0.0000 C   0  0
    9.3395   -5.2114    0.0000 C   0  0
  2  1  1  0
  3  2  1  0
  4  9  2  0
  5 13  1  0
  6  4  1  0
  7  1  1  0
  8 11  2  0
  9 12  1  0
 10  3  1  0
 11 15  1  0
 12 15  2  0
 13 16  1  0
 14 23  1  0
 15 18  1  0
 16  1  1  0
 17  1  1  0
 18 14  1  0
 19  6  1  0
 20  6  1  0
 21  7  1  0
 22  7  2  0
 23 17  1  0
 24 10  1  0
 25 10  1  0
 26 22  1  0
 27 21  2  0
 28 26  2  0
  5  3  1  0
 28 27  1  0
  4  8  1  0
M  END
> <COMPOUND_ID>
DNDI1417809

$$$$

  SciTegic04051205032D

 24 26  0  0  0  0            999 V2000
    9.5632   -5.9148    0.0000 N   0  0
    9.8308   -6.6989    0.0000 C   0  0
    8.7299   -5.9148    0.0000 C   0  0
    8.5024   -6.7081    0.0000 C   0  0
    9.1666   -7.1786    0.0000 S   0  0
   10.6057   -6.9449    0.0000 N   0  0
   11.5558   -8.0273    0.0000 C   0  0
    7.6598   -6.8834    0.0000 C   0  0
   10.7809   -7.7659    0.0000 C   0  0
    6.3068   -8.5900    0.0000 C   0  0
    7.3861   -7.6552    0.0000 C   0  0
    8.2256   -5.2475    0.0000 O   0  0
   11.7127   -8.8268    0.0000 C   0  0
    6.8572   -9.2266    0.0000 C   0  0
    6.5743   -7.8151    0.0000 C   0  0
    7.6537   -9.0482    0.0000 C   0  0
   12.1739   -7.4984    0.0000 Cl  0  0
    7.9120   -8.2733    0.0000 C   0  0
   12.4937   -9.0697    0.0000 Cl  0  0
    5.4950   -8.7284    0.0000 O   0  0
    6.6205  -10.0076    0.0000 O   0  0
   10.1536   -8.3225    0.0000 C   0  0
   10.3289   -9.1435    0.0000 C   0  0
   11.1223   -9.3895    0.0000 C   0  0
  2  1  2  0
  3  1  1  0
  4  3  1  0
  5  2  1  0
  6  2  1  0
  7  9  1  0
  8  4  2  0
  9  6  1  0
 10 15  1  0
 11  8  1  0
 12  3  2  0
 13  7  2  0
 14 16  1  0
 15 11  2  0
 16 18  2  0
 17  7  1  0
 18 11  1  0
 19 13  1  0
 20 10  1  0
 21 14  1  0
 22  9  2  0
 23 22  1  0
 24 23  2  0
  4  5  1  0
 13 24  1  0
 14 10  2  0
M  END
> <COMPOUND_ID>
DNDI1417810

$$$$

  SciTegic04051205032D

 25 27  0  0  0  0            999 V2000
    7.9200   -7.8149    0.0000 N   0  0
    7.1845   -6.6986    0.0000 C   0  0
    7.9812   -6.4884    0.0000 C   0  0
    7.1407   -7.5216    0.0000 C   0  0
    8.4191   -7.1845    0.0000 C   0  0
    8.1520   -8.6292    0.0000 C   0  0
    9.2420   -7.1407    0.0000 C   0  0
    6.4053   -7.9200    0.0000 C   0  0
    8.3534   -5.7530    0.0000 C   0  0
    6.4885   -6.2608    0.0000 C   0  0
    7.2458  -10.6079    0.0000 N   0  0
    7.5785   -9.2202    0.0000 C   0  0
    5.7355   -6.6592    0.0000 C   0  0
    9.1808   -5.7354    0.0000 C   0  0
    9.6229   -6.4052    0.0000 C   0  0
    5.6873   -7.4559    0.0000 C   0  0
    7.8149  -10.0213    0.0000 C   0  0
    5.0000   -6.2389    0.0000 Cl  0  0
    9.5748   -5.0000    0.0000 Cl  0  0
    6.7861   -9.0319    0.0000 O   0  0
    7.1189  -12.7530    0.0000 O   0  0
    7.4735  -11.3871    0.0000 C   0  0
    6.9087  -11.9737    0.0000 C   0  0
    8.2746  -11.5973    0.0000 C   0  0
    8.8393  -11.0063    0.0000 C   0  0
  2  4  1  0
  3  5  2  0
  4  1  1  0
  5  1  1  0
  6  1  1  0
  7  5  1  0
  8  4  2  0
  9  3  1  0
 10  2  2  0
 11 17  1  0
 12  6  1  0
 13 16  2  0
 14 15  1  0
 15  7  2  0
 16  8  1  0
 17 12  1  0
 18 13  1  0
 19 14  1  0
 20 12  1  0
 21 23  1  0
 22 11  1  0
 23 22  1  0
 24 22  1  0
 25 24  1  0
  2  3  1  0
  9 14  2  0
 13 10  1  0
M  END
> <COMPOUND_ID>
DNDI1417811

$$$$

  SciTegic04051205032D

 29 32  0  0  0  0            999 V2000
    8.1518   -7.2884    0.0000 C   0  0
    6.5485   -7.0098    0.0000 N   0  0
    6.8316   -7.7680    0.0000 C   0  0
    7.6311   -7.9051    0.0000 C   0  0
    8.9466   -7.4209    0.0000 C   0  0
   10.3534   -8.4486    0.0000 N   0  0
    7.8640   -6.5210    0.0000 C   0  0
    7.0692   -6.3840    0.0000 C   0  0
   10.0154   -9.8327    0.0000 C   0  0
    9.2343   -8.1791    0.0000 N   0  0
   10.5773   -9.2343    0.0000 C   0  0
   10.2484  -10.6184    0.0000 C   0  0
    9.4627   -6.7951    0.0000 O   0  0
    6.3155   -8.3847    0.0000 C   0  0
   11.0432  -10.8102    0.0000 O   0  0
    9.2206   -9.6317    0.0000 C   0  0
    8.3847   -5.8907    0.0000 C   0  0
    6.7814   -5.6166    0.0000 C   0  0
   11.3812   -9.4262    0.0000 C   0  0
    9.6866  -11.2213    0.0000 C   0  0
    6.5987   -9.1521    0.0000 C   0  0
    5.5207   -8.2568    0.0000 C   0  0
    8.6451  -10.2347    0.0000 C   0  0
    8.1061   -5.1370    0.0000 C   0  0
    7.3022   -5.0000    0.0000 C   0  0
    5.0000   -8.8780    0.0000 C   0  0
    8.8781  -11.0248    0.0000 C   0  0
    6.0826   -9.7687    0.0000 C   0  0
    5.2878   -9.6317    0.0000 C   0  0
  2  8  1  0
  3  4  1  0
  4  1  2  0
  5  1  1  0
  6 10  1  0
  7  1  1  0
  8  7  2  0
  9 11  1  0
 10  5  1  0
 11  6  2  0
 12  9  1  0
 13  5  2  0
 14  3  1  0
 15 12  1  0
 16  9  2  0
 17  7  1  0
 18  8  1  0
 19 11  1  0
 20 12  2  0
 21 14  2  0
 22 14  1  0
 23 16  1  0
 24 17  2  0
 25 24  1  0
 26 22  2  0
 27 23  2  0
 28 21  1  0
 29 26  1  0
  3  2  2  0
 25 18  2  0
 28 29  2  0
 20 27  1  0
M  END
> <COMPOUND_ID>
DNDI1417812

$$$$

  SciTegic04051205032D

 26 28  0  0  0  0            999 V2000
    7.6802   -6.9619    0.0000 C   0  0
    8.0781   -7.6748    0.0000 C   0  0
    6.8568   -7.1443    0.0000 C   0  0
    7.5200   -8.2882    0.0000 S   0  0
    6.7739   -7.9676    0.0000 C   0  0
    8.8960   -7.6748    0.0000 N   0  0
    6.2434   -6.6137    0.0000 C   0  0
    7.9952   -6.1937    0.0000 C   0  0
    8.8960   -9.1116    0.0000 C   0  0
    8.4982   -9.8245    0.0000 C   0  0
    9.3215   -8.3877    0.0000 C   0  0
    5.4752   -6.8293    0.0000 S   0  0
    6.2876   -5.7792    0.0000 C   0  0
    5.0000   -6.1771    0.0000 C   0  0
    8.7910   -6.0832    0.0000 O   0  0
   10.1395   -8.3877    0.0000 O   0  0
    5.5139   -5.5030    0.0000 C   0  0
    8.0781  -10.5430    0.0000 C   0  0
    7.4647   -5.5527    0.0000 O   0  0
    6.6689   -5.6632    0.0000 C   0  0
    7.2216  -10.5430    0.0000 C   0  0
    8.4760  -11.2558    0.0000 C   0  0
    6.1605   -5.0000    0.0000 C   0  0
    8.0781  -11.9687    0.0000 C   0  0
    6.8237  -11.2558    0.0000 C   0  0
    7.2547  -12.0019    0.0000 C   0  0
  2  1  2  0
  3  1  1  0
  4  2  1  0
  5  3  2  0
  6  2  1  0
  7  3  1  0
  8  1  1  0
  9 11  1  0
 10  9  3  0
 11  6  1  0
 12  7  1  0
 13  7  2  0
 14 12  1  0
 15  8  2  0
 16 11  2  0
 17 13  1  0
 18 10  1  0
 19  8  1  0
 20 19  1  0
 21 18  1  0
 22 18  2  0
 23 20  1  0
 24 22  1  0
 25 21  2  0
 26 24  2  0
  5  4  1  0
 17 14  2  0
 26 25  1  0
M  END
> <COMPOUND_ID>
DNDI1417813

$$$$

  SciTegic04051205032D

 28 31  0  0  0  0            999 V2000
    7.8857   -7.1437    0.0000 C   0  0
    6.6421   -7.8651    0.0000 C   0  0
    6.2299   -7.1506    0.0000 N   0  0
    7.4666   -6.4291    0.0000 N   0  0
    7.4666   -7.8651    0.0000 C   0  0
   11.1905   -7.1437    0.0000 C   0  0
    8.7102   -7.1437    0.0000 N   0  0
   10.3626   -7.1437    0.0000 N   0  0
    6.6421   -6.4291    0.0000 C   0  0
    6.2367   -8.5796    0.0000 N   0  0
   11.5924   -6.4223    0.0000 C   0  0
    9.1156   -7.8651    0.0000 C   0  0
    9.1156   -6.4326    0.0000 C   0  0
    9.9434   -6.4291    0.0000 C   0  0
    9.9504   -7.8651    0.0000 C   0  0
   11.6027   -7.8582    0.0000 O   0  0
   12.4169   -6.4223    0.0000 C   0  0
    5.4157  -10.0191    0.0000 O   0  0
   12.8188   -5.7077    0.0000 C   0  0
    5.4054   -8.5866    0.0000 C   0  0
    6.6490   -9.2977    0.0000 C   0  0
   11.1802   -5.7215    0.0000 C   0  0
    6.2299   -5.7112    0.0000 C   0  0
   11.5787   -5.0104    0.0000 C   0  0
    6.2402  -10.0122    0.0000 C   0  0
    5.0000   -9.3011    0.0000 C   0  0
   12.3963   -5.0000    0.0000 C   0  0
   13.6330   -5.7009    0.0000 C   0  0
  2  5  1  0
  3  2  2  0
  4  1  1  0
  5  1  2  0
  6  8  1  0
  7  1  1  0
  8 14  1  0
  9  4  2  0
 10  2  1  0
 11  6  1  0
 12  7  1  0
 13  7  1  0
 14 13  1  0
 15 12  1  0
 16  6  2  0
 17 11  1  0
 18 25  1  0
 19 17  2  0
 20 10  1  0
 21 10  1  0
 22 11  2  0
 23  9  1  0
 24 22  1  0
 25 21  1  0
 26 20  1  0
 27 24  2  0
 28 19  1  0
  3  9  1  0
  8 15  1  0
 26 18  1  0
 19 27  1  0
M  END
> <COMPOUND_ID>
DNDI1417814

$$$$

  SciTegic04051205032D

 28 29  0  0  0  0            999 V2000
    7.8359  -10.7586    0.0000 C   0  0
    6.4283  -10.7711    0.0000 C   0  0
    7.1445  -11.1561    0.0000 C   0  0
    6.4283   -9.9389    0.0000 C   0  0
    7.8359   -9.9389    0.0000 C   0  0
    7.1445   -9.5373    0.0000 C   0  0
    7.8359   -7.4756    0.0000 C   0  0
    7.1445   -8.7011    0.0000 N   0  0
    7.8359   -8.3037    0.0000 N   0  0
    5.7121  -11.2016    0.0000 C   0  0
    8.5687  -11.1767    0.0000 C   0  0
    8.5687   -7.0658    0.0000 C   0  0
    7.1445  -11.9882    0.0000 O   0  0
   10.0052   -6.2337    0.0000 C   0  0
   10.7173   -5.8322    0.0000 N   0  0
    7.1445   -7.0658    0.0000 O   0  0
    9.2848   -7.4756    0.0000 C   0  0
    8.5687   -6.2337    0.0000 C   0  0
   10.0052   -7.0658    0.0000 C   0  0
    9.2682   -5.8322    0.0000 C   0  0
    8.9909  -10.4647    0.0000 C   0  0
    5.0000  -11.6239    0.0000 C   0  0
    6.1384  -11.9137    0.0000 C   0  0
    5.2898  -10.4812    0.0000 C   0  0
    9.2848  -11.6032    0.0000 C   0  0
    8.1298  -11.8930    0.0000 C   0  0
   11.4293   -6.2337    0.0000 C   0  0
   10.7173   -5.0000    0.0000 C   0  0
  2  3  1  0
  3  1  1  0
  4  2  2  0
  5  1  2  0
  6  5  1  0
  7  9  1  0
  8  6  2  0
  9  8  1  0
 10  2  1  0
 11  1  1  0
 12  7  1  0
 13  3  2  0
 14 20  2  0
 15 14  1  0
 16  7  2  0
 17 12  1  0
 18 12  2  0
 19 17  2  0
 20 18  1  0
 21 11  1  0
 22 10  1  0
 23 10  1  0
 24 10  1  0
 25 11  1  0
 26 11  1  0
 27 15  1  0
 28 15  1  0
  4  6  1  0
 14 19  1  0
M  END
> <COMPOUND_ID>
DNDI1417815

$$$$

  SciTegic04051205032D

 28 30  0  0  0  0            999 V2000
    8.2707   -6.4334    0.0000 C   0  0
    7.8407   -7.1631    0.0000 C   0  0
    7.0198   -7.1631    0.0000 C   0  0
    5.7688   -7.8884    0.0000 C   0  0
    6.5897   -7.8884    0.0000 C   0  0
    5.3649   -7.1631    0.0000 O   0  0
    7.8537   -5.7167    0.0000 C   0  0
   10.7552   -9.3001    0.0000 C   0  0
    9.5042   -8.5965    0.0000 N   0  0
   10.3382   -8.5965    0.0000 C   0  0
    5.7688   -6.4594    0.0000 C   0  0
    7.0198   -5.7167    0.0000 O   0  0
    9.0916   -7.8754    0.0000 C   0  0
    8.2707   -7.8754    0.0000 C   0  0
    6.6028   -6.4594    0.0000 C   0  0
    9.0916   -6.4334    0.0000 C   0  0
    5.0000   -8.1795    0.0000 C   0  0
    5.7688   -8.7224    0.0000 C   0  0
    8.2707   -5.0000    0.0000 C   0  0
   10.3382  -10.0255    0.0000 C   0  0
   11.5544   -9.3001    0.0000 C   0  0
   10.7335   -7.8754    0.0000 C   0  0
    6.6549   -5.0391    0.0000 C   0  0
    9.5042   -5.7167    0.0000 C   0  0
   10.7552  -10.7552    0.0000 C   0  0
   11.9714  -10.0255    0.0000 C   0  0
    9.0916   -5.0000    0.0000 C   0  0
   11.5544  -10.7552    0.0000 C   0  0
  2  1  1  0
  3  2  1  0
  4  5  1  0
  5  3  1  0
  6 11  1  0
  7  1  1  0
  8 10  1  0
  9 13  1  0
 10  9  1  0
 11 15  1  0
 12  7  1  0
 13 14  1  0
 14  2  1  0
 15  3  1  0
 16  1  2  0
 17  4  1  0
 18  4  1  0
 19  7  2  0
 20  8  2  0
 21  8  1  0
 22 10  1  0
 23 12  1  0
 24 16  1  0
 25 20  1  0
 26 21  2  0
 27 24  2  0
 28 26  1  0
 27 19  1  0
  6  4  1  0
 28 25  2  0
M  END
> <COMPOUND_ID>
DNDI1417816

$$$$

  SciTegic04051205032D

 26 28  0  0  0  0            999 V2000
    8.7321   -6.4835    0.0000 C   0  0
   10.1628   -6.4835    0.0000 C   0  0
    9.4432   -6.0715    0.0000 C   0  0
    8.0124   -6.0630    0.0000 C   0  0
   10.8740   -6.0715    0.0000 C   0  0
    9.4517   -7.7224    0.0000 N   0  0
    8.7321   -7.3076    0.0000 C   0  0
   10.1628   -7.3076    0.0000 C   0  0
    9.4432   -5.2475    0.0000 O   0  0
   11.5936   -6.4864    0.0000 C   0  0
    7.3013   -6.4750    0.0000 C   0  0
   13.0243   -7.3076    0.0000 C   0  0
    5.8761   -7.2991    0.0000 C   0  0
   13.7355   -7.7224    0.0000 S   0  0
    5.1650   -7.7111    0.0000 S   0  0
   11.5936   -7.3076    0.0000 C   0  0
   12.3132   -6.0715    0.0000 C   0  0
    6.5873   -6.0630    0.0000 C   0  0
    7.3013   -7.2991    0.0000 C   0  0
   13.0243   -6.4864    0.0000 C   0  0
    5.8761   -6.4750    0.0000 C   0  0
    6.5873   -7.7195    0.0000 C   0  0
   12.3132   -7.7224    0.0000 C   0  0
    9.4517   -8.5436    0.0000 C   0  0
   14.4523   -7.3076    0.0000 C   0  0
    5.1650   -8.5323    0.0000 C   0  0
  2  3  1  0
  3  1  1  0
  4  1  2  0
  5  2  2  0
  6  7  1  0
  7  1  1  0
  8  6  1  0
  9  3  2  0
 10  5  1  0
 11  4  1  0
 12 20  1  0
 13 22  1  0
 14 12  1  0
 15 13  1  0
 16 10  2  0
 17 10  1  0
 18 11  2  0
 19 11  1  0
 20 17  2  0
 21 18  1  0
 22 19  2  0
 23 16  1  0
 24  6  1  0
 25 14  1  0
 26 15  1  0
  2  8  1  0
 21 13  2  0
 23 12  2  0
M  END
> <COMPOUND_ID>
DNDI1417817

$$$$

  SciTegic04051205032D

 27 29  0  0  0  0            999 V2000
   10.0300   -9.5270    0.0000 C   0  0
    9.3216   -9.9420    0.0000 C   0  0
    8.5839   -8.7222    0.0000 C   0  0
    8.6048   -9.5396    0.0000 C   0  0
    7.8797   -8.3198    0.0000 C   0  0
   10.0258   -8.7222    0.0000 C   0  0
    9.3006   -8.3156    0.0000 O   0  0
   10.7467   -9.9420    0.0000 C   0  0
    7.8797   -9.9420    0.0000 C   0  0
    7.1629   -8.7222    0.0000 C   0  0
    7.8671   -7.4982    0.0000 C   0  0
    9.3216  -10.7468    0.0000 O   0  0
   11.4635   -9.5270    0.0000 C   0  0
    7.1629   -9.5396    0.0000 C   0  0
    7.1587   -7.0749    0.0000 N   0  0
    7.8671   -5.8383    0.0000 C   0  0
    5.7168   -7.0749    0.0000 C   0  0
    5.0000   -7.4982    0.0000 C   0  0
    7.8671   -5.0000    0.0000 C   0  0
   11.4635   -8.6971    0.0000 Cl  0  0
    6.4587   -8.3324    0.0000 O   0  0
   10.7467  -10.7803    0.0000 C   0  0
    7.1587   -6.2533    0.0000 C   0  0
    6.4419   -7.4982    0.0000 C   0  0
   12.1886   -9.9294    0.0000 C   0  0
   11.4719  -11.1869    0.0000 C   0  0
   12.1886  -10.7803    0.0000 C   0  0
  2  1  1  0
  3  7  1  0
  4  2  1  0
  5  3  2  0
  6  1  2  0
  7  6  1  0
  8  1  1  0
  9  4  2  0
 10  5  1  0
 11  5  1  0
 12  2  2  0
 13  8  1  0
 14  9  1  0
 15 11  1  0
 16 23  1  0
 17 24  1  0
 18 17  2  0
 19 16  2  0
 20 13  1  0
 21 10  1  0
 22  8  2  0
 23 15  1  0
 24 15  1  0
 25 13  2  0
 26 22  1  0
 27 26  2  0
  4  3  1  0
 27 25  1  0
 14 10  2  0
M  END
> <COMPOUND_ID>
DNDI1417818

$$$$

  SciTegic04051205032D

 20 21  0  0  0  0            999 V2000
    6.4287   -7.7105    0.0000 C   0  0
    7.1431   -7.3000    0.0000 C   0  0
   10.0059   -7.3000    0.0000 C   0  0
    8.5771   -7.3000    0.0000 N   0  0
   10.7202   -7.7105    0.0000 C   0  0
    6.4287   -8.5474    0.0000 C   0  0
    7.8575   -7.7105    0.0000 N   0  0
   10.0059   -6.4790    0.0000 C   0  0
    7.1431   -6.4790    0.0000 O   0  0
    9.2862   -7.7105    0.0000 C   0  0
   11.4399   -7.3000    0.0000 C   0  0
   10.7202   -6.0578    0.0000 C   0  0
   11.4399   -6.4790    0.0000 C   0  0
   10.7202   -5.2475    0.0000 I   0  0
   10.7096   -8.5314    0.0000 O   0  0
    7.1431   -8.9526    0.0000 O   0  0
    5.7037   -7.2946    0.0000 C   0  0
    5.7037   -8.9526    0.0000 C   0  0
    5.0000   -7.7105    0.0000 C   0  0
    5.0000   -8.5474    0.0000 C   0  0
  2  1  1  0
  3 10  1  0
  4  7  1  0
  5  3  1  0
  6  1  2  0
  7  2  1  0
  8  3  2  0
  9  2  2  0
 10  4  2  0
 11  5  2  0
 12  8  1  0
 13 12  2  0
 14 12  1  0
 15  5  1  0
 16  6  1  0
 17  1  1  0
 18  6  1  0
 19 17  2  0
 20 19  1  0
 20 18  2  0
 11 13  1  0
M  END
> <COMPOUND_ID>
DNDI1417819

$$$$

  SciTegic04051205032D

 28 31  0  0  0  0            999 V2000
    6.4254  -11.1996    0.0000 N   0  0
    6.4254   -7.0567    0.0000 N   0  0
    5.7152   -7.4710    0.0000 C   0  0
    7.1356   -7.4710    0.0000 C   0  0
    5.7152  -10.7902    0.0000 C   0  0
    7.1356  -10.7902    0.0000 C   0  0
    6.4254   -9.5572    0.0000 C   0  0
    6.4254   -8.7040    0.0000 C   0  0
    5.7152   -8.2897    0.0000 C   0  0
    7.1356   -8.2897    0.0000 C   0  0
    5.7152   -9.9617    0.0000 C   0  0
    7.1356   -9.9617    0.0000 C   0  0
    7.8507   -9.5572    0.0000 C   0  0
    7.8507   -8.7040    0.0000 C   0  0
    5.0000   -9.5572    0.0000 C   0  0
    5.0000   -8.7040    0.0000 C   0  0
    6.4254  -12.0183    0.0000 C   0  0
    6.4254   -6.2331    0.0000 C   0  0
    5.0000   -7.0567    0.0000 O   0  0
    7.8507   -7.0567    0.0000 O   0  0
    7.8507  -11.1996    0.0000 O   0  0
    5.0000  -11.1996    0.0000 O   0  0
    7.1356  -12.4326    0.0000 C   0  0
    7.1356   -5.8188    0.0000 C   0  0
    7.1158  -13.2562    0.0000 O   0  0
    7.1356   -5.0000    0.0000 O   0  0
    7.8260   -6.2331    0.0000 C   0  0
    7.8507  -12.0183    0.0000 C   0  0
  2  4  1  0
  3  9  1  0
  4 10  1  0
  5  1  1  0
  6  1  1  0
  7 12  1  0
  8  7  2  0
  9  8  1  0
 10 14  2  0
 11  5  1  0
 12  6  1  0
 13 12  2  0
 14 13  1  0
 15 11  2  0
 16 15  1  0
 17  1  1  0
 18  2  1  0
 19  3  2  0
 20  4  2  0
 21  6  2  0
 22  5  2  0
 23 17  1  0
 24 18  1  0
 25 23  1  0
 26 24  1  0
 27 24  1  0
 28 23  1  0
 11  7  1  0
 16  9  2  0
 10  8  1  0
  2  3  1  0
M  END
> <COMPOUND_ID>
DNDI1417820

$$$$

  SciTegic04051205032D

 27 29  0  0  0  0            999 V2000
    7.8876   -6.3836    0.0000 N   0  0
    8.7019   -6.2881    0.0000 C   0  0
   11.4275   -7.0484    0.0000 C   0  0
    7.4762   -7.0983    0.0000 C   0  0
   11.6269   -6.2507    0.0000 N   0  0
    6.6536   -7.0983    0.0000 C   0  0
   10.0481   -6.6869    0.0000 N   0  0
   12.4163   -6.0221    0.0000 C   0  0
    9.2504   -6.9071    0.0000 C   0  0
    7.5427   -5.6275    0.0000 C   0  0
   12.0175   -7.6300    0.0000 S   0  0
    8.1535   -5.0748    0.0000 C   0  0
    8.8722   -5.4862    0.0000 C   0  0
   10.6339   -7.2686    0.0000 N   0  0
    6.2298   -7.8087    0.0000 C   0  0
   13.0022   -6.5997    0.0000 C   0  0
    6.6328   -8.5192    0.0000 F   0  0
   12.8027   -7.3974    0.0000 O   0  0
    6.2464   -6.3711    0.0000 C   0  0
   12.6116   -5.2244    0.0000 C   0  0
    5.3989   -7.7963    0.0000 C   0  0
   13.7999   -6.3711    0.0000 C   0  0
   13.3968   -7.9666    0.0000 C   0  0
    5.4196   -6.3629    0.0000 C   0  0
   13.4010   -5.0000    0.0000 C   0  0
    5.0000   -7.0733    0.0000 C   0  0
   13.9993   -5.5651    0.0000 C   0  0
  2  1  1  0
  3 14  1  0
  4  1  1  0
  5  3  1  0
  6  4  1  0
  7  9  2  0
  8  5  1  0
  9  2  1  0
 10  1  1  0
 11  3  2  0
 12 10  2  0
 13  2  2  0
 14  7  1  0
 15  6  2  0
 16  8  2  0
 17 15  1  0
 18 16  1  0
 19  6  1  0
 20  8  1  0
 21 15  1  0
 22 16  1  0
 23 18  1  0
 24 19  2  0
 25 20  2  0
 26 24  1  0
 27 25  1  0
 13 12  1  0
 21 26  2  0
 22 27  2  0
M  END
> <COMPOUND_ID>
DNDI1417821

$$$$

  SciTegic04051205032D

 27 29  0  0  0  0            999 V2000
    9.7737   -7.0942    0.0000 N   0  0
    8.9769   -7.3605    0.0000 N   0  0
    9.7827   -6.2548    0.0000 C   0  0
    8.4911   -6.6980    0.0000 C   0  0
   10.4475   -7.5620    0.0000 C   0  0
    8.9769   -6.0265    0.0000 C   0  0
   10.3848   -8.3835    0.0000 N   0  0
    6.4296   -9.4690    0.0000 N   0  0
    7.6361   -6.6980    0.0000 C   0  0
    7.2242   -9.2497    0.0000 C   0  0
   11.1928   -7.2195    0.0000 O   0  0
    8.7083   -5.2476    0.0000 S   0  0
    7.2086   -7.4098    0.0000 C   0  0
    7.2354   -5.9795    0.0000 C   0  0
    9.5924   -8.5984    0.0000 C   0  0
    8.0211   -9.0348    0.0000 C   0  0
    9.9371   -5.4468    0.0000 C   0  0
   10.6019   -6.3354    0.0000 C   0  0
    5.9820   -6.6779    0.0000 C   0  0
    6.3849   -7.3964    0.0000 C   0  0
    6.4095   -5.9728    0.0000 C   0  0
    5.1650   -6.6689    0.0000 F   0  0
    9.0104   -8.0276    0.0000 C   0  0
    9.3887   -9.3974    0.0000 C   0  0
    8.2248   -8.2469    0.0000 C   0  0
    8.6031   -9.6123    0.0000 C   0  0
    7.8823   -5.2408    0.0000 C   0  0
  2  1  1  0
  3  1  1  0
  4  2  2  0
  5  1  1  0
  6  3  1  0
  7  5  1  0
  8 10  3  0
  9  4  1  0
 10 16  1  0
 11  5  2  0
 12  6  1  0
 13  9  1  0
 14  9  2  0
 15  7  1  0
 16 25  2  0
 17  3  1  0
 18  3  1  0
 19 21  2  0
 20 13  2  0
 21 14  1  0
 22 19  1  0
 23 15  2  0
 24 15  1  0
 25 23  1  0
 26 24  2  0
 27 12  1  0
  6  4  1  0
 16 26  1  0
 19 20  1  0
M  END
> <COMPOUND_ID>
DNDI1417822

$$$$

  SciTegic04051205032D

 28 31  0  0  0  0            999 V2000
    6.2453  -11.4191    0.0000 C   0  0
    6.6547  -10.7002    0.0000 N   0  0
    6.6547  -12.1347    0.0000 N   0  0
    5.4128   -9.9881    0.0000 C   0  0
    5.4128  -11.4191    0.0000 N   0  0
    6.2453   -9.9881    0.0000 C   0  0
    5.4128   -8.5639    0.0000 N   0  0
    5.4128   -7.1329    0.0000 C   0  0
    6.2453   -7.1329    0.0000 C   0  0
    5.0000   -9.2795    0.0000 C   0  0
    5.0000   -7.8450    0.0000 C   0  0
    5.0000  -10.7002    0.0000 C   0  0
    6.6547   -6.4173    0.0000 C   0  0
    6.6547   -9.2795    0.0000 C   0  0
    6.2453  -12.8468    0.0000 C   0  0
    7.4803  -12.1347    0.0000 C   0  0
    5.0000   -6.4173    0.0000 C   0  0
    6.2453   -8.5639    0.0000 C   0  0
    6.2453   -5.7121    0.0000 C   0  0
    5.4128   -5.7121    0.0000 C   0  0
    6.6547   -7.8450    0.0000 O   0  0
    7.8931  -12.8468    0.0000 C   0  0
    6.6547  -13.5623    0.0000 C   0  0
    7.4803  -13.5623    0.0000 C   0  0
    6.6547   -5.0000    0.0000 O   0  0
    7.4803   -7.8450    0.0000 C   0  0
    7.4803   -5.0000    0.0000 C   0  0
    7.8931  -14.2744    0.0000 C   0  0
  2  1  1  0
  3  1  1  0
  4 12  2  0
  5  1  2  0
  6  2  2  0
  7 10  1  0
  8 11  1  0
  9  8  1  0
 10  4  1  0
 11  7  1  0
 12  5  1  0
 13  9  2  0
 14  6  1  0
 15  3  1  0
 16  3  1  0
 17  8  2  0
 18 14  1  0
 19 20  2  0
 20 17  1  0
 21  9  1  0
 22 16  1  0
 23 15  1  0
 24 22  1  0
 25 19  1  0
 26 21  1  0
 27 25  1  0
 28 24  1  0
  4  6  1  0
 24 23  1  0
  7 18  1  0
 13 19  1  0
M  END
> <COMPOUND_ID>
DNDI1417823

$$$$

  SciTegic04051205032D

 28 31  0  0  0  0            999 V2000
    7.8621   -9.9314    0.0000 S   0  0
    8.5777   -9.5188    0.0000 C   0  0
    7.1594   -9.5188    0.0000 C   0  0
    7.8621   -8.2811    0.0000 C   0  0
    8.5777   -8.6937    0.0000 C   0  0
    7.1594   -8.6937    0.0000 C   0  0
    7.8621   -7.4561    0.0000 N   0  0
   10.0216   -6.2377    0.0000 C   0  0
    6.4311   -9.9249    0.0000 C   0  0
    9.2932   -9.9314    0.0000 C   0  0
   10.7243   -5.8251    0.0000 N   0  0
    8.5777   -7.0435    0.0000 C   0  0
   10.0216   -7.0435    0.0000 C   0  0
    9.3060   -5.8251    0.0000 C   0  0
    9.2932   -7.4561    0.0000 C   0  0
    8.5777   -6.2377    0.0000 C   0  0
   10.7243   -5.0000    0.0000 C   0  0
   11.4398   -6.2377    0.0000 C   0  0
    5.7155   -9.5188    0.0000 C   0  0
    9.2739  -10.7565    0.0000 C   0  0
   10.0022   -9.5188    0.0000 C   0  0
    6.4439  -10.7565    0.0000 C   0  0
   10.7178   -9.9314    0.0000 C   0  0
   10.0022  -11.1691    0.0000 C   0  0
    5.0000   -9.9249    0.0000 C   0  0
    5.7155  -11.1626    0.0000 C   0  0
    5.0000  -10.7436    0.0000 C   0  0
   10.7178  -10.7758    0.0000 C   0  0
  2  1  1  0
  3  1  1  0
  4  6  1  0
  5  2  2  0
  6  3  2  0
  7  4  2  0
  8 14  1  0
  9  3  1  0
 10  2  1  0
 11  8  1  0
 12  7  1  0
 13 15  1  0
 14 16  2  0
 15 12  2  0
 16 12  1  0
 17 11  1  0
 18 11  1  0
 19  9  2  0
 20 10  2  0
 21 10  1  0
 22  9  1  0
 23 21  2  0
 24 20  1  0
 25 19  1  0
 26 22  2  0
 27 26  1  0
 28 23  1  0
  4  5  1  0
 27 25  2  0
 28 24  2  0
  8 13  2  0
M  END
> <COMPOUND_ID>
DNDI1417824

$$$$

  SciTegic04051205032D

 28 30  0  0  0  0            999 V2000
    6.6332   -7.5974    0.0000 C   0  0
    7.6574   -6.6009    0.0000 C   0  0
    6.8547   -6.8362    0.0000 C   0  0
    8.0311   -7.9988    0.0000 C   0  0
    8.2387   -7.2007    0.0000 C   0  0
    7.2145   -8.1972    0.0000 C   0  0
    9.4152   -8.3310    0.0000 N   0  0
    8.6216   -8.5524    0.0000 C   0  0
    7.9019   -5.8028    0.0000 C   0  0
    5.8166   -7.7958    0.0000 C   0  0
    7.6297   -9.5813    0.0000 N   0  0
    8.4187   -9.3460    0.0000 C   0  0
   11.0069   -7.9296    0.0000 O   0  0
    6.2825   -6.2318    0.0000 O   0  0
    9.6366   -7.5605    0.0000 C   0  0
   10.0103   -8.9169    0.0000 C   0  0
    7.0761   -5.6043    0.0000 C   0  0
    8.6816   -6.0380    0.0000 C   0  0
    8.1234   -5.0000    0.0000 C   0  0
    5.0000   -7.9988    0.0000 C   0  0
    5.9965   -8.6124    0.0000 C   0  0
    5.6182   -7.0022    0.0000 C   0  0
    7.4360  -10.3840    0.0000 C   0  0
   10.7854   -8.6816    0.0000 C   0  0
   10.4117   -7.3344    0.0000 C   0  0
    9.0138   -9.9134    0.0000 C   0  0
    8.0450  -10.9515    0.0000 C   0  0
    8.8431  -10.7116    0.0000 C   0  0
  2  3  1  0
  3  1  2  0
  4  6  2  0
  5  4  1  0
  6  1  1  0
  7  8  1  0
  8  4  1  0
  9  2  1  0
 10  1  1  0
 11 12  2  0
 12  8  1  0
 13 24  1  0
 14  3  1  0
 15  7  1  0
 16  7  1  0
 17  9  1  0
 18  9  1  0
 19  9  1  0
 20 10  1  0
 21 10  1  0
 22 10  1  0
 23 11  1  0
 24 16  1  0
 25 15  1  0
 26 12  1  0
 27 28  1  0
 28 26  2  0
  2  5  2  0
 25 13  1  0
 27 23  2  0
M  END
> <COMPOUND_ID>
DNDI1417825

$$$$

  SciTegic04051205032D

 27 29  0  0  0  0            999 V2000
   12.1658   -6.8462    0.0000 N   0  0
   12.1844   -6.0191    0.0000 N   0  0
   12.9348   -7.1212    0.0000 C   0  0
   13.4251   -6.4525    0.0000 C   0  0
   12.9533   -5.7900    0.0000 C   0  0
    7.9347   -7.6338    0.0000 N   0  0
    8.4027   -6.2779    0.0000 C   0  0
    7.3069   -8.1464    0.0000 C   0  0
    7.7972   -6.8277    0.0000 O   0  0
   11.5343   -7.3997    0.0000 C   0  0
    9.1878   -6.5713    0.0000 C   0  0
    6.5404   -7.8715    0.0000 C   0  0
    6.4005   -7.0654    0.0000 N   0  0
   14.2535   -6.4525    0.0000 Cl  0  0
    8.2628   -5.4743    0.0000 O   0  0
    9.3314   -7.3774    0.0000 C   0  0
    9.8218   -6.0191    0.0000 C   0  0
   10.7468   -7.1212    0.0000 C   0  0
   13.1874   -7.9087    0.0000 C   0  0
   13.2282   -5.0000    0.0000 C   0  0
   10.5907   -6.2965    0.0000 C   0  0
   10.0967   -7.6561    0.0000 C   0  0
    7.4443   -8.9748    0.0000 C   0  0
    5.6315   -6.7682    0.0000 C   0  0
    5.9089   -8.4027    0.0000 C   0  0
    5.0000   -7.3180    0.0000 C   0  0
    5.1411   -8.1279    0.0000 C   0  0
  2  1  1  0
  3  1  1  0
  4  3  2  0
  5  2  2  0
  6  9  1  0
  7 11  1  0
  8  6  2  0
  9  7  1  0
 10  1  1  0
 11 16  2  0
 12  8  1  0
 13 12  2  0
 14  4  1  0
 15  7  2  0
 16 22  1  0
 17 21  2  0
 18 10  1  0
 19  3  1  0
 20  5  1  0
 21 18  1  0
 22 18  2  0
 23  8  1  0
 24 13  1  0
 25 12  1  0
 26 27  1  0
 27 25  2  0
  4  5  1  0
 17 11  1  0
 24 26  2  0
M  END
> <COMPOUND_ID>
DNDI1417826

$$$$

  SciTegic04051205032D

 27 30  0  0  0  0            999 V2000
    7.8649   -7.0625    0.0000 C   0  0
    7.1456   -7.4741    0.0000 C   0  0
    6.4345   -7.0625    0.0000 C   0  0
    8.5676   -7.4741    0.0000 C   0  0
    7.8649   -6.2225    0.0000 C   0  0
    6.4345   -6.2392    0.0000 C   0  0
    9.2911   -7.0583    0.0000 N   0  0
    7.1456   -5.8233    0.0000 C   0  0
   10.7090   -6.2392    0.0000 N   0  0
    5.7193   -7.4741    0.0000 N   0  0
    8.5801   -8.2932    0.0000 C   0  0
    9.2787   -6.2392    0.0000 C   0  0
    9.9980   -7.4741    0.0000 C   0  0
    7.8649   -9.5365    0.0000 N   0  0
   10.7090   -7.0625    0.0000 C   0  0
    9.9980   -5.8233    0.0000 C   0  0
    7.1331   -8.2932    0.0000 O   0  0
    7.1331   -5.0000    0.0000 Cl  0  0
    7.8649   -8.7091    0.0000 C   0  0
    5.7235   -5.8151    0.0000 C   0  0
   11.4242   -5.8233    0.0000 C   0  0
    5.0000   -7.0583    0.0000 C   0  0
    9.2911   -8.7091    0.0000 C   0  0
    8.5676   -9.9523    0.0000 C   0  0
    5.0083   -6.2225    0.0000 C   0  0
   12.1353   -6.2225    0.0000 C   0  0
    9.2911   -9.5324    0.0000 C   0  0
  2  1  2  0
  3  2  1  0
  4  1  1  0
  5  1  1  0
  6  8  1  0
  7  4  1  0
  8  5  2  0
  9 16  1  0
 10  3  1  0
 11  4  1  0
 12  7  1  0
 13  7  1  0
 14 19  1  0
 15 13  1  0
 16 12  1  0
 17  2  1  0
 18  8  1  0
 19 11  2  0
 20  6  1  0
 21  9  1  0
 22 10  2  0
 23 11  1  0
 24 14  2  0
 25 20  2  0
 26 21  1  0
 27 23  2  0
  6  3  2  0
 24 27  1  0
  9 15  1  0
 25 22  1  0
M  END
> <COMPOUND_ID>
DNDI1417827

$$$$

  SciTegic04051205032D

 25 26  0  0  0  0            999 V2000
   11.5047   -6.6921    0.0000 C   0  0
   11.0997   -7.4167    0.0000 C   0  0
    7.3822   -8.1233    0.0000 C   0  0
   11.0997   -8.8208    0.0000 N   0  0
   11.0997   -5.9900    0.0000 C   0  0
    6.5632   -8.1233    0.0000 C   0  0
   11.0997  -10.2430    0.0000 C   0  0
    7.7918   -8.8389    0.0000 C   0  0
   11.5047   -9.5544    0.0000 N   0  0
   11.5047   -8.1233    0.0000 C   0  0
   11.5047  -10.9586    0.0000 O   0  0
   10.2580   -7.4167    0.0000 C   0  0
    7.3822   -9.5544    0.0000 C   0  0
    6.1536   -8.8389    0.0000 C   0  0
   10.2580   -5.9900    0.0000 C   0  0
    7.8143   -7.4167    0.0000 Cl  0  0
   12.3283   -6.6921    0.0000 O   0  0
    9.8440   -6.6921    0.0000 C   0  0
    6.5632   -9.5769    0.0000 C   0  0
    5.3300   -8.8208    0.0000 Cl  0  0
    8.6154   -8.8389    0.0000 O   0  0
    9.8440   -5.2475    0.0000 O   0  0
   10.2580  -10.2430    0.0000 C   0  0
    9.0204   -9.5544    0.0000 C   0  0
    9.8440   -9.5544    0.0000 C   0  0
  2  1  2  0
  3  8  2  0
  4 10  2  0
  5  1  1  0
  6  3  1  0
  7  9  1  0
  8 21  1  0
  9  4  1  0
 10  2  1  0
 11  7  2  0
 12  2  1  0
 13  8  1  0
 14 19  1  0
 15  5  2  0
 16  3  1  0
 17  1  1  0
 18 15  1  0
 19 13  2  0
 20 14  1  0
 21 24  1  0
 22 15  1  0
 23  7  1  0
 24 25  1  0
 25 23  1  0
 18 12  2  0
  6 14  2  0
M  END
> <COMPOUND_ID>
DNDI1417828

$$$$

  SciTegic04051205032D

 27 30  0  0  0  0            999 V2000
    7.8916   -9.9923    0.0000 C   0  0
    8.1701   -8.6857    0.0000 N   0  0
    7.5512   -9.2393    0.0000 C   0  0
    8.8818   -9.0983    0.0000 C   0  0
    7.4790  -10.7074    0.0000 C   0  0
    8.7133   -9.9028    0.0000 S   0  0
    6.6538  -10.7074    0.0000 C   0  0
    9.6348   -8.7648    0.0000 N   0  0
    9.1397   -6.6297    0.0000 C   0  0
    9.0571   -7.4549    0.0000 C   0  0
    9.8926   -6.2996    0.0000 C   0  0
    9.7241   -7.9397    0.0000 C   0  0
    7.8916  -11.4191    0.0000 O   0  0
    6.2412  -11.4191    0.0000 C   0  0
    8.4760   -6.1449    0.0000 O   0  0
    6.7466   -9.0673    0.0000 N   0  0
    9.9820   -5.4745    0.0000 O   0  0
   10.5665   -6.7844    0.0000 C   0  0
   10.4806   -7.6061    0.0000 C   0  0
    6.6538  -12.1308    0.0000 O   0  0
    6.2412   -9.9923    0.0000 C   0  0
    8.5620   -5.3300    0.0000 C   0  0
    9.3150   -5.0000    0.0000 C   0  0
    5.4126  -11.4191    0.0000 C   0  0
    7.4790  -12.1308    0.0000 C   0  0
    5.4126   -9.9923    0.0000 C   0  0
    5.0000  -10.7074    0.0000 C   0  0
  2  3  1  0
  3  1  2  0
  4  6  1  0
  5  1  1  0
  6  1  1  0
  7  5  1  0
  8  4  1  0
  9 10  1  0
 10 12  2  0
 11 18  1  0
 12  8  1  0
 13  5  2  0
 14  7  1  0
 15  9  1  0
 16  3  1  0
 17 11  1  0
 18 19  2  0
 19 12  1  0
 20 14  1  0
 21  7  2  0
 22 15  1  0
 23 17  1  0
 24 14  2  0
 25 20  1  0
 26 21  1  0
 27 26  2  0
  4  2  2  0
 27 24  1  0
 11  9  2  0
 23 22  1  0
M  END
> <COMPOUND_ID>
DNDI1417829

$$$$

  SciTegic04051205032D

 27 29  0  0  0  0            999 V2000
    8.5371   -7.0711    0.0000 C   0  0
    8.5371   -6.2642    0.0000 C   0  0
    7.1384   -6.2642    0.0000 C   0  0
    7.1384   -7.0711    0.0000 C   0  0
    7.8377   -7.4611    0.0000 S   0  0
    6.4525   -7.4746    0.0000 C   0  0
    9.2364   -7.4611    0.0000 N   0  0
    5.7531   -7.0711    0.0000 N   0  0
    9.1647   -5.6455    0.0000 C   0  0
    9.9358   -7.0711    0.0000 C   0  0
    5.7531   -6.2642    0.0000 C   0  0
    6.4525   -5.8696    0.0000 C   0  0
    9.7968   -5.0000    0.0000 N   0  0
    9.9358   -6.2642    0.0000 O   0  0
   10.6351   -7.4611    0.0000 C   0  0
   11.3210   -7.0666    0.0000 C   0  0
   12.7152   -6.2596    0.0000 C   0  0
    6.6542   -8.2501    0.0000 C   0  0
    6.1028   -8.0753    0.0000 C   0  0
   12.0204   -7.4611    0.0000 C   0  0
   11.3210   -6.2642    0.0000 C   0  0
   12.0159   -5.8607    0.0000 C   0  0
   12.7197   -7.0666    0.0000 C   0  0
   13.4146   -5.8607    0.0000 O   0  0
    5.0627   -5.8607    0.0000 C   0  0
    5.0000   -6.5062    0.0000 C   0  0
   14.1139   -6.2596    0.0000 C   0  0
  2  1  2  0
  3  2  1  0
  4  5  1  0
  5  1  1  0
  6  4  1  0
  7  1  1  0
  8  6  1  0
  9  2  1  0
 10  7  1  0
 11 12  1  0
 12  3  1  0
 13  9  3  0
 14 10  2  0
 15 10  1  0
 16 15  1  0
 17 22  1  0
 18  6  1  0
 19  6  1  0
 20 16  2  0
 21 16  1  0
 22 21  2  0
 23 20  1  0
 24 17  1  0
 25 11  1  0
 26 11  1  0
 27 24  1  0
  3  4  2  0
  8 11  1  0
 17 23  2  0
M  END
> <COMPOUND_ID>
DNDI1417830

$$$$

  SciTegic04051205032D

 26 29  0  0  0  0            999 V2000
    8.9466   -7.4168    0.0000 C   0  0
    7.2215   -8.7839    0.0000 N   0  3
    7.6853   -8.1248    0.0000 C   0  0
    8.5154   -8.1248    0.0000 C   0  0
    9.7604   -7.4168    0.0000 N   0  0
    8.6780   -6.6356    0.0000 S   0  0
    7.2215   -7.4494    0.0000 S   0  0
    6.4403   -8.5480    0.0000 C   0  0
   10.0045   -6.6356    0.0000 C   0  0
    6.4403   -7.6936    0.0000 C   0  0
    9.3372   -6.1718    0.0000 C   0  0
   10.2730   -8.0842    0.0000 C   0  0
   11.0948   -8.0027    0.0000 C   0  0
   11.6075   -8.6701    0.0000 C   0  0
   12.4213   -8.5886    0.0000 O   0  0
    7.5063   -9.5977    0.0000 C   0  0
   11.2495   -9.4512    0.0000 O   0  0
    5.7080   -8.9386    0.0000 C   0  0
   10.7369   -6.2777    0.0000 C   0  0
    9.4186   -5.3500    0.0000 C   0  0
    5.7080   -7.3030    0.0000 C   0  0
    8.3201   -9.7604    0.0000 C   0  0
    5.0000   -8.5154    0.0000 C   0  0
   10.8263   -5.4476    0.0000 C   0  0
    5.0000   -7.7342    0.0000 C   0  0
   10.1998   -5.0000    0.0000 C   0  0
  2  3  2  0
  3  4  1  0
  4  1  2  0
  5  1  1  0
  6  1  1  0
  7  3  1  0
  8  2  1  0
  9  5  1  0
 10  7  1  0
 11  6  1  0
 12  5  1  0
 13 12  1  0
 14 13  1  0
 15 14  2  0
 16  2  1  0
 17 14  1  0
 18  8  1  0
 19  9  1  0
 20 11  1  0
 21 10  1  0
 22 16  1  0
 23 18  2  0
 24 19  2  0
 25 21  2  0
 26 20  2  0
 11  9  2  0
 24 26  1  0
  8 10  2  0
 23 25  1  0
M  CHG  1   2   1
M  END
> <COMPOUND_ID>
DNDI1417831

$$$$

  SciTegic04051205032D

 28 30  0  0  0  0            999 V2000
    7.1358   -8.3037    0.0000 C   0  0
    7.8491   -8.7166    0.0000 C   0  0
    6.4266   -8.7250    0.0000 C   0  0
    7.1483   -9.9597    0.0000 N   0  0
    6.4266   -9.5509    0.0000 C   0  0
    7.1233   -5.0084    0.0000 N   0  0
    8.5665   -8.2995    0.0000 C   0  0
    7.8574   -9.5384    0.0000 C   0  0
    7.1316   -7.4777    0.0000 N   0  0
    6.4058   -5.4213    0.0000 C   0  0
    7.8366   -5.4129    0.0000 C   0  0
    7.1316   -6.6518    0.0000 C   0  0
    6.4100   -6.2473    0.0000 C   0  0
    7.8366   -6.2347    0.0000 C   0  0
    8.5665   -7.4736    0.0000 O   0  0
    5.7092   -9.9680    0.0000 C   0  0
    9.2882   -8.7041    0.0000 O   0  0
    5.7092   -8.3121    0.0000 C   0  0
    8.5499   -5.0000    0.0000 C   0  0
    7.2567   -6.0011    0.0000 C   0  0
    5.6842   -5.0084    0.0000 C   0  0
    7.2025   -5.6257    0.0000 C   0  0
    5.0000   -8.7250    0.0000 C   0  0
    5.0000   -9.5551    0.0000 C   0  0
    5.7092  -10.7939    0.0000 C   0  0
    9.9973   -8.2911    0.0000 C   0  0
    5.0000  -11.2069    0.0000 C   0  0
   10.7148   -8.6916    0.0000 C   0  0
  2  1  2  0
  3  1  1  0
  4  8  2  0
  5  3  1  0
  6 10  1  0
  7  2  1  0
  8  2  1  0
  9  1  1  0
 10 13  1  0
 11 14  1  0
 12  9  1  0
 13 12  1  0
 14 12  1  0
 15  7  2  0
 16  5  2  0
 17  7  1  0
 18  3  2  0
 19 11  1  0
 20 11  1  0
 21 10  1  0
 22 10  1  0
 23 18  1  0
 24 23  2  0
 25 16  1  0
 26 17  1  0
 27 25  1  0
 28 26  1  0
  4  5  1  0
  6 11  1  0
 24 16  1  0
M  END
> <COMPOUND_ID>
DNDI1417832

$$$$

  SciTegic04051205032D

 27 30  0  0  0  0            999 V2000
    7.8344   -7.0555    0.0000 C   0  0
    6.4195   -7.0555    0.0000 C   0  0
    7.1292   -7.4749    0.0000 C   0  0
    6.4195   -6.2306    0.0000 C   0  0
    8.5672  -10.0005    0.0000 N   0  0
    7.1292   -5.8158    0.0000 C   0  0
    7.8344   -6.2306    0.0000 C   0  0
    8.5672   -8.3413    0.0000 N   0  0
    8.5672  -10.8162    0.0000 C   0  0
    8.5672   -7.4979    0.0000 C   0  0
    5.7143   -7.4749    0.0000 N   0  0
    7.8574   -9.5765    0.0000 C   0  0
    9.2723   -9.5765    0.0000 C   0  0
    7.8574  -11.2357    0.0000 C   0  0
    7.8574   -8.7608    0.0000 C   0  0
    9.2723   -8.7608    0.0000 C   0  0
    7.1292   -5.0000    0.0000 Cl  0  0
    7.1292   -8.2907    0.0000 O   0  0
    7.1292  -10.7932    0.0000 O   0  0
    5.7143   -5.8158    0.0000 C   0  0
    9.2723  -11.2357    0.0000 C   0  0
    5.0000   -7.0555    0.0000 C   0  0
    7.8574  -12.0514    0.0000 C   0  0
    6.3965  -11.2172    0.0000 C   0  0
    5.0000   -6.2306    0.0000 C   0  0
    9.2723  -12.0514    0.0000 C   0  0
    8.5672  -12.4754    0.0000 C   0  0
  2  3  1  0
  3  1  2  0
  4  6  1  0
  5 13  1  0
  6  7  2  0
  7  1  1  0
  8 10  1  0
  9  5  1  0
 10  1  1  0
 11  2  2  0
 12 15  1  0
 13 16  1  0
 14  9  2  0
 15  8  1  0
 16  8  1  0
 17  6  1  0
 18  3  1  0
 19 14  1  0
 20  4  2  0
 21  9  1  0
 22 11  1  0
 23 14  1  0
 24 19  1  0
 25 20  1  0
 26 21  2  0
 27 26  1  0
  4  2  1  0
  5 12  1  0
 25 22  2  0
 27 23  2  0
M  END
> <COMPOUND_ID>
DNDI1417833

$$$$

  SciTegic04051205032D

 28 30  0  0  0  0            999 V2000
    6.3268   -6.3749    0.0000 N   0  0
    5.9934   -7.1277    0.0000 C   0  0
    5.1684   -7.0418    0.0000 N   0  0
    8.4650   -9.9809    0.0000 C   0  0
   11.3559  -10.7199    0.0000 C   0  0
    5.7116   -5.8250    0.0000 C   0  0
    5.0000   -6.2305    0.0000 O   0  0
   10.9365  -11.4280    0.0000 C   0  0
   10.9503  -10.0049    0.0000 C   0  0
    9.6990  -10.6993    0.0000 C   0  0
   10.1012  -11.4212    0.0000 C   0  0
   10.1184   -9.9946    0.0000 C   0  0
    8.8740  -10.6890    0.0000 N   0  0
    7.6400   -9.9809    0.0000 N   0  0
    6.4025   -7.8393    0.0000 C   0  0
    8.8843   -9.2659    0.0000 O   0  0
    7.2275   -7.8393    0.0000 C   0  0
    5.9934   -8.5475    0.0000 C   0  0
    7.2275   -9.2659    0.0000 C   0  0
   12.1775  -10.7268    0.0000 O   0  0
   11.3387  -12.1465    0.0000 O   0  0
   11.3662   -9.2968    0.0000 O   0  0
    7.6400   -8.5475    0.0000 C   0  0
    6.4025   -9.2659    0.0000 C   0  0
    5.7116   -5.0000    0.0000 C   0  0
   12.6003  -10.0187    0.0000 C   0  0
   12.1637  -12.1499    0.0000 C   0  0
   10.9503   -8.5681    0.0000 C   0  0
  2  1  1  0
  3  2  2  0
  4 14  1  0
  5  9  2  0
  6  1  2  0
  7  6  1  0
  8 11  2  0
  9 12  1  0
 10 13  1  0
 11 10  1  0
 12 10  2  0
 13  4  1  0
 14 19  1  0
 15  2  1  0
 16  4  2  0
 17 15  2  0
 18 15  1  0
 19 24  1  0
 20  5  1  0
 21  8  1  0
 22  9  1  0
 23 17  1  0
 24 18  2  0
 25  6  1  0
 26 20  1  0
 27 21  1  0
 28 22  1  0
  3  7  1  0
 23 19  2  0
  5  8  1  0
M  END
> <COMPOUND_ID>
DNDI1417834

$$$$

  SciTegic04051205032D

 28 30  0  0  0  0            999 V2000
    8.6829   -7.7124    0.0000 C   0  0
    7.9773   -7.3011    0.0000 C   0  0
    8.6829   -8.5349    0.0000 C   0  0
    7.9773   -6.4800    0.0000 C   0  0
    9.3963   -7.3011    0.0000 C   0  0
    8.6829   -6.0700    0.0000 C   0  0
    9.3963   -6.4800    0.0000 N   0  0
    7.9773   -8.9462    0.0000 N   0  0
    7.2546   -7.7124    0.0000 C   0  0
    7.2546   -6.0700    0.0000 C   0  0
    7.9773   -9.7542    0.0000 C   0  0
    6.5451   -6.4800    0.0000 C   0  0
    6.5451   -7.3011    0.0000 C   0  0
    9.3963   -8.9462    0.0000 O   0  0
    8.6829   -5.2475    0.0000 O   0  0
    8.6868  -10.1549    0.0000 C   0  0
   10.1163   -6.0582    0.0000 C   0  0
    9.3963   -9.7424    0.0000 F   0  0
    5.8291   -6.0582    0.0000 O   0  0
    5.8291   -7.7124    0.0000 O   0  0
    7.2665   -8.5309    0.0000 C   0  0
    7.2665  -10.1667    0.0000 C   0  0
    8.6868  -10.9761    0.0000 C   0  0
    5.0000   -7.3760    0.0000 C   0  0
    5.8330   -5.2226    0.0000 C   0  0
   10.1058   -5.2226    0.0000 C   0  0
    7.2665  -10.9840    0.0000 C   0  0
    7.9773  -11.3860    0.0000 C   0  0
  2  1  1  0
  3  1  1  0
  4  2  2  0
  5  1  2  0
  6  7  1  0
  7  5  1  0
  8  3  1  0
  9  2  1  0
 10  4  1  0
 11  8  1  0
 12 13  1  0
 13  9  2  0
 14  3  2  0
 15  6  2  0
 16 11  1  0
 17  7  1  0
 18 16  1  0
 19 12  1  0
 20 13  1  0
 21  8  1  0
 22 11  2  0
 23 16  2  0
 24 20  1  0
 25 19  1  0
 26 17  1  0
 27 22  1  0
 28 27  2  0
  4  6  1  0
 12 10  2  0
 28 23  1  0
M  END
> <COMPOUND_ID>
DNDI1417835

$$$$

  SciTegic04051205032D

 29 32  0  0  0  0            999 V2000
    7.1590   -7.4772    0.0000 C   0  0
    7.8745   -7.0622    0.0000 C   0  0
    7.1514   -8.3072    0.0000 N   0  0
    8.5924   -7.4772    0.0000 C   0  0
    6.4410   -7.0546    0.0000 C   0  0
    6.4334   -8.7095    0.0000 C   0  0
    9.3028   -7.0622    0.0000 C   0  0
    7.8745   -6.2373    0.0000 C   0  0
   10.0106   -7.4823    0.0000 N   0  0
    6.4334   -6.2220    0.0000 C   0  0
    5.7180   -8.2996    0.0000 O   0  0
    6.4309   -9.5395    0.0000 C   0  0
    9.3028   -6.2373    0.0000 C   0  0
    8.5848   -5.8401    0.0000 C   0  0
    8.5797   -8.3123    0.0000 O   0  0
    7.1437   -5.8325    0.0000 O   0  0
    5.7103   -7.4696    0.0000 C   0  0
   10.7285   -7.0673    0.0000 C   0  0
    5.7103   -5.8249    0.0000 C   0  0
    5.7103   -9.9468    0.0000 C   0  0
    7.1387   -9.9494    0.0000 C   0  0
   10.0233   -5.8427    0.0000 C   0  0
    7.1387   -5.0000    0.0000 C   0  0
    5.0000   -7.0622    0.0000 C   0  0
   10.7285   -6.2373    0.0000 C   0  0
    7.1361  -10.7692    0.0000 C   0  0
    5.7053  -10.7667    0.0000 C   0  0
    5.0000   -6.2322    0.0000 C   0  0
    6.4207  -11.1842    0.0000 C   0  0
  2  1  1  0
  3  1  1  0
  4  2  2  0
  5  1  1  0
  6  3  1  0
  7  4  1  0
  8  2  1  0
  9  7  2  0
 10  5  2  0
 11  6  2  0
 12  6  1  0
 13 14  1  0
 14  8  2  0
 15  4  1  0
 16 10  1  0
 17  5  1  0
 18  9  1  0
 19 10  1  0
 20 12  2  0
 21 12  1  0
 22 13  2  0
 23 16  1  0
 24 17  2  0
 25 22  1  0
 26 21  2  0
 27 20  1  0
 28 24  1  0
 29 27  2  0
 28 19  2  0
 13  7  1  0
 29 26  1  0
 25 18  2  0
M  END
> <COMPOUND_ID>
DNDI1417836

$$$$

  SciTegic04051205032D

 27 29  0  0  0  0            999 V2000
    6.4610   -7.0433    0.0000 S   0  0
   10.3908   -7.1294    0.0000 C   0  0
   11.2162   -7.1294    0.0000 C   0  0
    9.9755   -6.4179    0.0000 C   0  0
    6.6433   -6.4508    0.0000 C   0  0
    9.1450   -6.4230    0.0000 N   0  0
   11.6340   -6.4103    0.0000 C   0  0
   10.3806   -5.7039    0.0000 C   0  0
   11.2086   -5.6887    0.0000 C   0  0
    6.1445   -7.8207    0.0000 N   0  0
    7.2384   -7.3624    0.0000 O   0  0
    5.6837   -6.7268    0.0000 O   0  0
    7.4865   -6.4432    0.0000 C   0  0
    9.9831   -7.8561    0.0000 N   0  0
    8.7272   -5.7089    0.0000 N   0  0
   12.4594   -6.4052    0.0000 O   0  0
    7.8916   -5.7216    0.0000 C   0  0
   11.6365   -7.8409    0.0000 C   0  0
    6.2255   -5.7292    0.0000 C   0  0
    6.6357   -5.0075    0.0000 C   0  0
    5.3114   -7.9321    0.0000 C   0  0
    6.6636   -8.4815    0.0000 C   0  0
   10.4060   -8.5677    0.0000 C   0  0
    7.4637   -5.0000    0.0000 C   0  0
   11.2314   -8.5625    0.0000 C   0  0
    5.0000   -8.7094    0.0000 C   0  0
    6.3471   -9.2589    0.0000 C   0  0
  2  4  1  0
  3  2  2  0
  4  6  2  0
  5  1  1  0
  6 15  1  0
  7  9  1  0
  8  4  1  0
  9  8  2  0
 10  1  1  0
 11  1  2  0
 12  1  2  0
 13  5  1  0
 14  2  1  0
 15 17  1  0
 16  7  2  0
 17 13  2  0
 18  3  1  0
 19  5  2  0
 20 19  1  0
 21 10  1  0
 22 10  1  0
 23 14  2  0
 24 20  2  0
 25 23  1  0
 26 21  1  0
 27 22  1  0
 24 17  1  0
  7  3  1  0
 25 18  2  0
M  END
> <COMPOUND_ID>
DNDI1417837

$$$$

  SciTegic04051205032D

 27 30  0  0  0  0            999 V2000
    7.1537   -6.2418    0.0000 C   0  0
    6.4358   -6.6501    0.0000 C   0  0
    7.8648   -6.6501    0.0000 C   0  0
    7.8648   -7.4701    0.0000 C   0  0
    6.4358   -7.4701    0.0000 C   0  0
    5.7247   -6.2418    0.0000 N   0  0
   10.7329   -7.4701    0.0000 C   0  0
    7.1537   -7.8886    0.0000 C   0  0
    9.3040   -7.4701    0.0000 N   0  0
   11.4305   -7.8886    0.0000 N   0  0
   10.7329   -6.6501    0.0000 S   0  0
   10.0117   -7.8886    0.0000 N   0  0
    8.5827   -7.8886    0.0000 C   0  0
   12.1517   -7.4701    0.0000 C   0  0
   12.1517   -6.6501    0.0000 C   0  0
    8.5827   -6.2418    0.0000 O   0  0
    7.1537   -5.4151    0.0000 C   0  0
   12.8594   -6.2418    0.0000 C   0  0
    5.7247   -7.8886    0.0000 C   0  0
   12.8594   -5.4151    0.0000 F   0  0
    5.7247   -5.4151    0.0000 C   0  0
    5.0170   -6.6501    0.0000 C   0  0
    6.4358   -5.0000    0.0000 C   0  0
    5.0000   -7.4701    0.0000 C   0  0
   13.5807   -7.4701    0.0000 C   0  0
   12.8594   -7.8886    0.0000 C   0  0
   13.5807   -6.6501    0.0000 C   0  0
  2  1  1  0
  3  1  2  0
  4  3  1  0
  5  2  2  0
  6  2  1  0
  7 12  1  0
  8  4  2  0
  9 13  2  0
 10  7  1  0
 11  7  2  0
 12  9  1  0
 13  4  1  0
 14 10  1  0
 15 14  2  0
 16  3  1  0
 17  1  1  0
 18 15  1  0
 19  5  1  0
 20 18  1  0
 21 23  1  0
 22  6  1  0
 23 17  1  0
 24 22  1  0
 25 26  2  0
 26 14  1  0
 27 25  1  0
 21  6  1  0
  8  5  1  0
 24 19  1  0
 27 18  2  0
M  END
> <COMPOUND_ID>
DNDI1417838

$$$$

  SciTegic04051205032D

 28 31  0  0  0  0            999 V2000
    5.7162   -9.9654    0.0000 N   0  0
    7.1355   -9.1269    0.0000 N   0  0
    6.4280  -10.3672    0.0000 C   0  0
    7.1355   -9.9654    0.0000 C   0  0
    8.5636   -6.6508    0.0000 C   0  0
    7.8517   -6.2315    0.0000 C   0  0
    9.2797   -6.2315    0.0000 C   0  0
    5.7162   -9.1269    0.0000 C   0  0
    7.1355   -6.6508    0.0000 C   0  0
    7.8517   -5.4193    0.0000 C   0  0
    9.9916   -6.6508    0.0000 C   0  0
    9.2797   -5.4193    0.0000 C   0  0
    6.4280   -8.7077    0.0000 C   0  0
   10.7253   -5.4193    0.0000 C   0  0
    6.4280   -5.4193    0.0000 C   0  0
   10.7253   -6.2315    0.0000 C   0  0
    6.4280   -6.2315    0.0000 C   0  0
    9.9916   -5.0000    0.0000 C   0  0
    7.1355   -5.0000    0.0000 C   0  0
    5.7162   -5.0131    0.0000 F   0  0
   11.4459   -5.0262    0.0000 F   0  0
    5.0000  -10.3672    0.0000 C   0  0
    7.8517   -8.7077    0.0000 C   0  0
    7.8517   -7.8910    0.0000 C   0  0
    8.5636   -7.4718    0.0000 C   0  0
    6.4280  -11.2057    0.0000 C   0  0
    5.0000  -11.2057    0.0000 C   0  0
    5.7162  -11.6031    0.0000 C   0  0
  2 13  1  0
  3  1  1  0
  4  3  1  0
  5 25  1  0
  6  5  1  0
  7  5  1  0
  8  1  1  0
  9  6  1  0
 10  6  2  0
 11  7  2  0
 12  7  1  0
 13  8  1  0
 14 18  1  0
 15 19  2  0
 16 11  1  0
 17  9  2  0
 18 12  2  0
 19 10  1  0
 20 15  1  0
 21 14  1  0
 22  1  1  0
 23  2  1  0
 24 23  1  0
 25 24  1  0
 26  3  1  0
 27 22  1  0
 28 27  1  0
  2  4  1  0
 28 26  1  0
 16 14  2  0
 15 17  1  0
M  END
> <COMPOUND_ID>
DNDI1417839

$$$$

  SciTegic04051205032D

 28 31  0  0  0  0            999 V2000
    7.2094   -7.0804    0.0000 C   0  0
    8.6325   -7.0804    0.0000 C   0  0
    5.7989   -7.0804    0.0000 C   0  0
    6.0818   -7.5340    0.0000 C   0  0
    6.5062   -5.8571    0.0000 C   0  0
    7.9210   -7.4965    0.0000 N   0  0
   12.1901   -5.8197    0.0000 C   0  0
    9.3523   -7.4965    0.0000 N   0  0
    6.5062   -7.4799    0.0000 C   0  0
    6.6685   -7.9085    0.0000 C   0  0
    7.2094   -6.2690    0.0000 C   0  0
    5.3828   -7.7794    0.0000 C   0  0
    5.7989   -6.2690    0.0000 C   0  0
    6.0943   -6.5603    0.0000 C   0  0
   11.4785   -6.2399    0.0000 C   0  0
    8.6325   -6.2607    0.0000 O   0  0
   12.1776   -5.0000    0.0000 O   0  0
   11.4910   -7.0679    0.0000 C   0  0
   10.7545   -5.8363    0.0000 C   0  0
   10.0638   -7.0804    0.0000 C   0  0
   12.9099   -6.2191    0.0000 O   0  0
   10.0513   -6.2566    0.0000 C   0  0
   10.7795   -7.4799    0.0000 C   0  0
    5.6616   -8.2455    0.0000 C   0  0
    6.4979   -5.0332    0.0000 C   0  0
    5.0000   -6.8682    0.0000 C   0  0
   12.9140   -7.0472    0.0000 C   0  0
   13.6339   -7.4591    0.0000 C   0  0
  2  6  1  0
  3  9  1  0
  4 10  1  0
  5 11  1  0
  6  1  1  0
  7 15  1  0
  8  2  1  0
  9  1  1  0
 10  1  1  0
 11  1  1  0
 12  4  1  0
 13  3  1  0
 14  4  1  0
 15 18  2  0
 16  2  2  0
 17  7  2  0
 18 23  1  0
 19 22  2  0
 20  8  1  0
 21  7  1  0
 22 20  1  0
 23 20  2  0
 24  4  1  0
 25  5  1  0
 26  3  1  0
 27 21  1  0
 28 27  1  0
 12  3  1  0
 14  5  1  0
 13  5  1  0
 15 19  1  0
M  END
> <COMPOUND_ID>
DNDI1417840

$$$$

  SciTegic04051205032D

 24 26  0  0  0  0            999 V2000
    7.5128   -6.8924    0.0000 C   0  0
   11.0764   -6.5103    0.0000 C   0  0
    8.2299   -6.4867    0.0000 C   0  0
   11.7935   -6.9113    0.0000 C   0  0
    9.6343   -6.4867    0.0000 N   0  0
    7.5128   -7.7228    0.0000 C   0  0
    6.7925   -6.4867    0.0000 C   0  0
   11.0764   -5.6800    0.0000 C   0  0
    8.9517   -6.8924    0.0000 N   0  0
   10.3545   -6.9113    0.0000 C   0  0
    8.2299   -5.6564    0.0000 O   0  0
   12.5106   -6.5103    0.0000 C   0  0
   11.7935   -5.2711    0.0000 C   0  0
   12.5106   -5.6800    0.0000 C   0  0
    6.7925   -8.1238    0.0000 C   0  0
    6.0754   -6.9113    0.0000 C   0  0
    6.0754   -7.6992    0.0000 C   0  0
    8.2079   -8.1474    0.0000 O   0  0
    5.3300   -6.5103    0.0000 Br  0  0
   10.3545   -5.2475    0.0000 O   0  0
   11.7935   -7.7417    0.0000 C   0  0
   13.2277   -6.9349    0.0000 C   0  0
   12.5106   -8.1474    0.0000 C   0  0
   13.2277   -7.7417    0.0000 C   0  0
  2 10  1  0
  3  1  1  0
  4  2  1  0
  5  9  1  0
  6  1  1  0
  7  1  2  0
  8  2  2  0
  9  3  1  0
 10  5  2  0
 11  3  2  0
 12  4  1  0
 13  8  1  0
 14 13  2  0
 15  6  2  0
 16  7  1  0
 17 16  2  0
 18  6  1  0
 19 16  1  0
 20  8  1  0
 21  4  2  0
 22 12  2  0
 23 21  1  0
 24 23  2  0
 17 15  1  0
 14 12  1  0
 24 22  1  0
M  END
> <COMPOUND_ID>
DNDI1417841

$$$$

  SciTegic04051205032D

 26 29  0  0  0  0            999 V2000
    8.0322   -7.4574    0.0000 C   0  0
    8.8568   -7.5407    0.0000 N   0  0
    7.8572   -6.6452    0.0000 C   0  0
    8.5736   -6.2370    0.0000 N   0  0
    9.1858   -6.7827    0.0000 C   0  0
    7.6156   -8.1737    0.0000 C   0  0
    6.7868   -8.2571    0.0000 N   0  0
    7.9363   -8.9318    0.0000 N   0  0
    7.1366   -6.2454    0.0000 C   0  0
    9.8980   -6.3662    0.0000 C   0  0
    7.3200   -9.4774    0.0000 C   0  0
    6.6078   -9.0568    0.0000 C   0  0
    9.2733   -8.2571    0.0000 O   0  0
    6.4328   -6.6452    0.0000 C   0  0
    7.1366   -5.4207    0.0000 C   0  0
   10.6186   -6.7743    0.0000 C   0  0
    9.8855   -5.5457    0.0000 C   0  0
    5.7206   -5.4082    0.0000 C   0  0
   11.3183   -5.5332    0.0000 C   0  0
    6.4328   -5.0000    0.0000 C   0  0
   11.3224   -6.3579    0.0000 C   0  0
   10.5977   -5.1209    0.0000 C   0  0
    5.7206   -6.2370    0.0000 C   0  0
    5.0000   -5.0000    0.0000 Cl  0  0
   12.0306   -5.1084    0.0000 Cl  0  0
    6.2370   -7.6364    0.0000 C   0  0
  2  1  1  0
  3  1  2  0
  4  3  1  0
  5  2  1  0
  6  1  1  0
  7  6  1  0
  8  6  2  0
  9  3  1  0
 10  5  1  0
 11  8  1  0
 12  7  1  0
 13  2  1  0
 14  9  2  0
 15  9  1  0
 16 10  2  0
 17 10  1  0
 18 23  2  0
 19 22  1  0
 20 15  2  0
 21 16  1  0
 22 17  2  0
 23 14  1  0
 24 18  1  0
 25 19  1  0
 26  7  1  0
  5  4  2  0
 11 12  2  0
 18 20  1  0
 19 21  2  0
M  END
> <COMPOUND_ID>
DNDI1417842

$$$$

  SciTegic04051205032D

 29 32  0  0  0  0            999 V2000
    8.6618   -7.3464    0.0000 C   0  0
    9.1791   -6.7243    0.0000 C   0  0
    7.9720   -6.2374    0.0000 C   0  0
    8.7700   -6.0312    0.0000 N   0  0
    8.8646   -8.1545    0.0000 C   0  0
    7.9044   -7.0455    0.0000 C   0  0
    7.2924   -5.7573    0.0000 N   0  0
    9.6355   -8.4656    0.0000 N   0  0
    7.1674   -7.3938    0.0000 N   0  0
    8.3304   -8.7902    0.0000 N   0  0
    6.5452   -6.1259    0.0000 C   0  0
    6.4809   -6.9339    0.0000 C   0  0
    9.5815   -9.3008    0.0000 C   0  0
    8.7733   -9.5002    0.0000 C   0  0
    5.7506   -7.2991    0.0000 C   0  0
    5.8791   -5.6423    0.0000 C   0  0
    5.0000   -7.6474    0.0000 N   0  0
    5.1826   -5.1825    0.0000 N   0  0
    9.9906   -6.7919    0.0000 N   0  0
    9.0912   -5.2704    0.0000 C   0  0
    9.9094   -5.1825    0.0000 C   0  0
   11.2179   -5.7506    0.0000 N   0  0
   10.4064   -5.8486    0.0000 C   0  0
   10.1528   -9.8958    0.0000 C   0  0
    8.5400  -10.2948    0.0000 C   0  0
   11.7116   -6.4166    0.0000 C   0  0
   11.5493   -5.0000    0.0000 C   0  0
    9.9264  -10.6971    0.0000 C   0  0
    9.1216  -10.9000    0.0000 C   0  0
  2  1  2  0
  3  6  1  0
  4  2  1  0
  5  1  1  0
  6  1  1  0
  7  3  2  0
  8  5  2  0
  9  6  2  0
 10  5  1  0
 11 12  2  0
 12  9  1  0
 13  8  1  0
 14 10  1  0
 15 12  1  0
 16 11  1  0
 17 15  3  0
 18 16  3  0
 19  2  1  0
 20  4  1  0
 21 20  1  0
 22 23  1  0
 23 21  1  0
 24 13  1  0
 25 14  1  0
 26 22  1  0
 27 22  1  0
 28 24  2  0
 29 25  2  0
  4  3  1  0
 13 14  2  0
 11  7  1  0
 28 29  1  0
M  END
> <COMPOUND_ID>
DNDI1417843

$$$$

  SciTegic04051205032D

 28 30  0  0  0  0            999 V2000
    8.5692   -8.2975    0.0000 N   0  0
    8.5692   -7.4757    0.0000 C   0  0
    9.2879   -8.7102    0.0000 C   0  0
    9.2879   -7.0631    0.0000 C   0  0
    9.2879   -9.5354    0.0000 C   0  0
   10.0031   -7.4757    0.0000 O   0  0
    8.5692   -9.9480    0.0000 C   0  0
    7.8575   -8.7102    0.0000 C   0  0
    7.8575   -7.0631    0.0000 C   0  0
   10.0031   -8.2975    0.0000 C   0  0
    9.2879   -6.2379    0.0000 C   0  0
    8.5692  -10.7733    0.0000 O   0  0
    7.8575   -9.5354    0.0000 N   0  0
    7.1457   -8.2975    0.0000 C   0  0
    7.8575   -6.2379    0.0000 C   0  0
    8.5692   -5.8252    0.0000 C   0  0
    5.7118   -7.4757    0.0000 C   0  0
    5.7118   -9.9480    0.0000 N   0  0
    5.0000   -7.0631    0.0000 F   0  0
    7.1457   -7.4757    0.0000 C   0  0
    6.4304   -8.7102    0.0000 C   0  0
    5.7118   -8.2975    0.0000 C   0  0
    6.4304   -7.0631    0.0000 C   0  0
    7.1457   -9.9480    0.0000 C   0  0
    6.4304   -9.5354    0.0000 C   0  0
    5.7118  -10.7733    0.0000 C   0  0
    5.0000   -9.5354    0.0000 C   0  0
    8.5692   -5.0000    0.0000 C   0  0
  2  1  1  0
  3  1  1  0
  4  2  1  0
  5  3  1  0
  6 10  1  0
  7  5  1  0
  8  1  1  0
  9  2  2  0
 10  3  1  0
 11  4  2  0
 12  7  2  0
 13  7  1  0
 14  8  1  0
 15  9  1  0
 16 15  2  0
 17 22  2  0
 18 25  1  0
 19 17  1  0
 20 14  1  0
 21 14  2  0
 22 21  1  0
 23 20  2  0
 24 13  1  0
 25 24  1  0
 26 18  1  0
 27 18  1  0
 28 16  1  0
  6  4  1  0
 17 23  1  0
 16 11  1  0
M  END
> <COMPOUND_ID>
DNDI1417844

$$$$

  SciTegic04051205032D

 29 32  0  0  0  0            999 V2000
    5.7474   -7.1223    0.0000 N   0  3
   10.4232  -11.2663    0.0000 C   0  0
    6.4372   -7.2133    0.0000 C   0  0
   10.8064  -11.8364    0.0000 N   0  0
   10.8639  -10.7058    0.0000 C   0  0
    6.7439   -6.5522    0.0000 C   0  0
    5.6228   -6.4180    0.0000 C   0  0
   11.5298  -11.6256    0.0000 C   0  0
    6.2073   -6.1067    0.0000 C   0  0
   11.5298  -10.9596    0.0000 C   0  0
    9.7045  -11.2663    0.0000 C   0  0
    7.9894   -9.2350    0.0000 C   0  0
    8.7129   -9.2350    0.0000 C   0  0
    5.2492   -7.6397    0.0000 C   0  0
   10.5764  -12.5023    0.0000 C   0  0
   11.2999  -10.0398    0.0000 C   0  0
   10.2459  -10.2602    0.0000 C   0  0
    7.1032   -5.8336    0.0000 C   0  0
    7.5200   -6.8923    0.0000 C   0  0
    5.0000   -6.0875    0.0000 C   0  0
   12.0903  -12.0088    0.0000 C   0  0
    6.2073   -5.3737    0.0000 C   0  0
   12.1430  -10.6339    0.0000 C   0  0
    9.0722   -8.6505    0.0000 C   0  0
    9.7620   -8.6745    0.0000 C   0  0
   12.7371  -11.6495    0.0000 C   0  0
    5.5653   -5.0000    0.0000 C   0  0
    5.0000   -5.3018    0.0000 C   0  0
   12.7610  -10.9596    0.0000 C   0  0
  2 11  2  0
  3  1  2  0
  4  2  1  0
  5  2  1  0
  6  3  1  0
  7  1  1  0
  8  4  1  0
  9  7  2  0
 10  5  1  0
 11 13  1  0
 12  3  1  0
 13 12  2  0
 14  1  1  0
 15  4  1  0
 16  5  1  0
 17  5  1  0
 18  6  1  0
 19  6  1  0
 20  7  1  0
 21  8  1  0
 22  9  1  0
 23 10  1  0
 24 13  1  0
 25 24  1  0
 26 21  2  0
 27 28  1  0
 28 20  2  0
 29 23  2  0
  9  6  1  0
 22 27  2  0
  8 10  2  0
 26 29  1  0
M  CHG  1   1   1
M  END
> <COMPOUND_ID>
DNDI1417845

$$$$

  SciTegic04051205032D

 27 29  0  0  0  0            999 V2000
    7.2272  -12.1386    0.0000 C   0  0
    6.4023  -12.1386    0.0000 C   0  0
    5.9899  -11.4203    0.0000 N   0  0
    7.6431  -11.4203    0.0000 O   0  0
    7.6431  -12.8535    0.0000 C   0  0
    6.4023  -10.7089    0.0000 C   0  0
    7.2272  -10.7089    0.0000 C   0  0
    5.9899   -8.5607    0.0000 C   0  0
    6.4023   -9.2825    0.0000 C   0  0
    5.9899   -9.9939    0.0000 C   0  0
    8.4680  -12.8535    0.0000 C   0  0
    5.9899  -12.8535    0.0000 O   0  0
    5.1650   -8.5607    0.0000 O   0  0
    8.8804  -12.1386    0.0000 C   0  0
    7.6431   -9.9939    0.0000 C   0  0
    7.2272   -9.2825    0.0000 C   0  0
    6.4023   -7.8493    0.0000 N   0  0
    5.9899   -5.7114    0.0000 N   0  0
    8.4680  -11.4203    0.0000 Cl  0  0
    5.9899   -7.1343    0.0000 C   0  0
    8.8804  -13.5650    0.0000 C   0  0
    6.4023   -6.4160    0.0000 C   0  0
    9.7053  -12.1386    0.0000 C   0  0
    5.1650   -5.7114    0.0000 C   0  0
    6.4023   -5.0000    0.0000 C   0  0
    9.7053  -13.5650    0.0000 C   0  0
   10.1177  -12.8535    0.0000 C   0  0
  2  1  1  0
  3  2  1  0
  4  1  1  0
  5  1  2  0
  6  7  1  0
  7  4  1  0
  8  9  1  0
  9 16  2  0
 10  6  2  0
 11  5  1  0
 12  2  2  0
 13  8  2  0
 14 11  2  0
 15  7  2  0
 16 15  1  0
 17  8  1  0
 18 22  1  0
 19 14  1  0
 20 17  1  0
 21 11  1  0
 22 20  1  0
 23 14  1  0
 24 18  1  0
 25 18  1  0
 26 21  2  0
 27 26  1  0
  6  3  1  0
 10  9  1  0
 23 27  2  0
M  END
> <COMPOUND_ID>
DNDI1417846

$$$$

  SciTegic04051205032D

 27 30  0  0  0  0            999 V2000
    7.0690  -10.7089    0.0000 C   0  0
    7.4780   -9.9974    0.0000 N   0  0
    7.4780  -11.4272    0.0000 N   0  0
    6.2373   -9.2825    0.0000 C   0  0
    6.2373  -10.7089    0.0000 N   0  0
    7.0690   -9.2825    0.0000 C   0  0
    6.2373   -7.8493    0.0000 N   0  0
    6.2373   -6.4229    0.0000 C   0  0
    5.8317   -8.5676    0.0000 C   0  0
    8.3029  -12.8536    0.0000 N   0  0
    5.8317   -7.1378    0.0000 C   0  0
    5.8317   -9.9974    0.0000 C   0  0
    7.4780   -8.5676    0.0000 C   0  0
    8.3029  -11.4272    0.0000 C   0  0
    7.0690  -12.1421    0.0000 C   0  0
    5.8317   -5.7149    0.0000 C   0  0
    7.0690   -7.8493    0.0000 C   0  0
    8.7223  -12.1421    0.0000 C   0  0
    7.4780  -12.8536    0.0000 C   0  0
    5.0000   -5.7149    0.0000 Cl  0  0
    8.7223  -13.5719    0.0000 C   0  0
    7.0690   -6.4229    0.0000 C   0  0
    6.2373   -5.0000    0.0000 C   0  0
    9.5471  -13.5719    0.0000 C   0  0
    7.4780   -5.7149    0.0000 C   0  0
    9.9596  -14.2868    0.0000 C   0  0
    7.0690   -5.0000    0.0000 C   0  0
  2  1  1  0
  3  1  1  0
  4 12  2  0
  5  1  2  0
  6  2  2  0
  7  9  1  0
  8 11  1  0
  9  4  1  0
 10 19  1  0
 11  7  1  0
 12  5  1  0
 13  6  1  0
 14  3  1  0
 15  3  1  0
 16  8  1  0
 17 13  1  0
 18 14  1  0
 19 15  1  0
 20 16  1  0
 21 10  1  0
 22  8  2  0
 23 16  2  0
 24 21  1  0
 25 22  1  0
 26 24  1  0
 27 25  2  0
  4  6  1  0
 10 18  1  0
  7 17  1  0
 23 27  1  0
M  END
> <COMPOUND_ID>
DNDI1417847

$$$$

  SciTegic04051205032D

 24 26  0  0  0  0            999 V2000
    8.5736   -9.5836    0.0000 C   0  0
    7.7542   -9.5836    0.0000 C   0  0
    8.8355  -10.3722    0.0000 C   0  0
    7.5202  -10.3722    0.0000 C   0  0
    8.1917  -10.8404    0.0000 N   0  0
    9.0696   -8.9121    0.0000 N   0  0
    7.1998   -8.9706    0.0000 C   0  0
    6.7316  -10.5478    0.0000 C   0  0
    7.8128   -5.8779    0.0000 N   0  0
    6.9965   -5.7608    0.0000 C   0  0
    6.1494   -9.9604    0.0000 C   0  0
    6.4112   -9.1462    0.0000 C   0  0
    8.1332   -6.6357    0.0000 C   0  0
    9.6241  -10.6340    0.0000 O   0  0
    6.4975   -6.4323    0.0000 O   0  0
    8.7462   -8.1215    0.0000 C   0  0
    8.9525   -6.7250    0.0000 C   0  0
    7.6372   -7.2794    0.0000 C   0  0
    5.3300  -10.1689    0.0000 Br  0  0
    9.2451   -7.4848    0.0000 C   0  0
    7.9576   -8.0372    0.0000 C   0  0
    8.3088   -5.2064    0.0000 C   0  0
    6.6731   -5.0000    0.0000 C   0  0
    5.8547   -8.5024    0.0000 C   0  0
  2  1  1  0
  3  1  1  0
  4  2  2  0
  5  3  1  0
  6  1  2  0
  7  2  1  0
  8  4  1  0
  9 13  1  0
 10  9  1  0
 11 12  1  0
 12  7  2  0
 13 18  1  0
 14  3  2  0
 15 10  2  0
 16  6  1  0
 17 20  1  0
 18 21  2  0
 19 11  1  0
 20 16  2  0
 21 16  1  0
 22  9  1  0
 23 10  1  0
 24 12  1  0
  5  4  1  0
 17 13  2  0
 11  8  2  0
M  END
> <COMPOUND_ID>
DNDI1417848

$$$$

  SciTegic04051205032D

 26 28  0  0  0  0            999 V2000
    8.9050   -6.4844    0.0000 C   0  0
   10.3246   -6.4844    0.0000 C   0  0
    9.6122   -7.7187    0.0000 N   0  0
    9.6122   -6.0695    0.0000 C   0  0
    8.9050   -7.3064    0.0000 C   0  0
   10.3246   -7.3064    0.0000 C   0  0
    8.1796   -6.0590    0.0000 C   0  0
   11.0501   -6.0590    0.0000 C   0  0
    9.6122   -5.2475    0.0000 O   0  0
    7.4672   -6.4687    0.0000 C   0  0
   11.7703   -6.4687    0.0000 C   0  0
    9.6122   -8.5407    0.0000 C   0  0
   12.4775   -6.0590    0.0000 C   0  0
    6.7600   -6.0590    0.0000 C   0  0
    6.0476   -6.4687    0.0000 C   0  0
   13.1951   -6.4661    0.0000 C   0  0
    5.3300   -6.0590    0.0000 Cl  0  0
   13.9075   -6.0460    0.0000 Cl  0  0
   12.4853   -7.7135    0.0000 C   0  0
    6.7600   -7.7056    0.0000 C   0  0
    7.4750   -7.2959    0.0000 C   0  0
   11.7729   -7.2959    0.0000 C   0  0
   13.2055   -7.2959    0.0000 C   0  0
    6.0476   -7.2959    0.0000 C   0  0
   10.3246   -8.9504    0.0000 C   0  0
    8.9050   -8.9582    0.0000 C   0  0
  2  4  1  0
  3  5  1  0
  4  1  1  0
  5  1  1  0
  6  3  1  0
  7  1  2  0
  8  2  2  0
  9  4  2  0
 10  7  1  0
 11  8  1  0
 12  3  1  0
 13 11  1  0
 14 10  2  0
 15 14  1  0
 16 13  2  0
 17 15  1  0
 18 16  1  0
 19 22  1  0
 20 21  2  0
 21 10  1  0
 22 11  2  0
 23 19  2  0
 24 20  1  0
 25 12  1  0
 26 12  1  0
  6  2  1  0
 24 15  2  0
 23 16  1  0
M  END
> <COMPOUND_ID>
DNDI1417849

$$$$

  SciTegic04051205032D

 27 29  0  0  0  0            999 V2000
    5.0000   -6.6842    0.0000 N   0  0
    5.4743   -6.0105    0.0000 N   0  0
    9.1280   -6.2545    0.0000 C   0  0
    6.2614   -6.2614    0.0000 C   0  0
   11.2692   -7.4884    0.0000 C   0  0
   11.9773   -6.2374    0.0000 C   0  0
    5.4846   -7.3544    0.0000 S   0  0
    6.2614   -7.0863    0.0000 C   0  0
   12.6922   -5.8249    0.0000 C   0  0
   11.2692   -8.3099    0.0000 C   0  0
   10.5544   -6.2545    0.0000 C   0  0
   11.9876   -7.0657    0.0000 C   0  0
    9.8360   -5.8386    0.0000 N   0  0
    6.9798   -5.8489    0.0000 C   0  0
    8.4130   -5.8489    0.0000 N   0  0
   10.5544   -7.0794    0.0000 C   0  0
   11.2624   -5.8318    0.0000 C   0  0
    7.6947   -6.2614    0.0000 C   0  0
    9.1280   -7.0794    0.0000 O   0  0
   10.5647   -8.7258    0.0000 O   0  0
   12.6785   -5.0000    0.0000 O   0  0
    6.9798   -7.4987    0.0000 C   0  0
    7.6947   -7.0863    0.0000 C   0  0
   11.9876   -8.7224    0.0000 O   0  0
   13.4037   -6.2271    0.0000 O   0  0
   11.9876   -9.5473    0.0000 C   0  0
   13.4174   -7.0520    0.0000 C   0  0
  2  1  2  0
  3 15  1  0
  4  2  1  0
  5 16  1  0
  6 17  2  0
  7  1  1  0
  8  7  1  0
  9  6  1  0
 10  5  1  0
 11 13  1  0
 12  6  1  0
 13  3  1  0
 14  4  1  0
 15 18  1  0
 16 11  2  0
 17 11  1  0
 18 14  2  0
 19  3  2  0
 20 10  2  0
 21  9  2  0
 22  8  1  0
 23 22  2  0
 24 10  1  0
 25  9  1  0
 26 24  1  0
 27 25  1  0
  4  8  2  0
 18 23  1  0
 12  5  2  0
M  END
> <COMPOUND_ID>
DNDI1417850

$$$$

  SciTegic04051205032D

 27 30  0  0  0  0            999 V2000
    8.2329  -11.0916    0.0000 C   0  0
    7.4579  -10.7942    0.0000 C   0  0
    8.6928  -11.0591    0.0000 C   0  0
    6.2181  -10.0724    0.0000 C   0  0
    6.5372   -9.2984    0.0000 N   0  0
    6.6307  -10.7942    0.0000 N   0  0
    9.1270  -11.6470    0.0000 C   0  0
    9.5466  -11.6056    0.0000 C   0  0
   10.1049  -11.0325    0.0000 O   0  0
    5.9060   -8.7578    0.0000 C   0  0
    5.4274  -10.0074    0.0000 S   0  0
    8.8109  -10.2349    0.0000 C   0  0
    5.2176   -9.2127    0.0000 C   0  0
    5.8764   -7.9483    0.0000 C   0  0
    7.7129  -10.2201    0.0000 O   0  0
    9.6509  -12.5333    0.0000 C   0  0
    9.2521  -12.5628    0.0000 C   0  0
    5.8026   -6.2880    0.0000 C   0  0
    8.1295   -9.6923    0.0000 O   0  0
    6.5726   -7.5042    0.0000 C   0  0
    5.1448   -7.5603    0.0000 C   0  0
    5.1093   -6.7213    0.0000 C   0  0
    6.5372   -6.6711    0.0000 C   0  0
    9.5997   -9.9927    0.0000 O   0  0
    5.7445   -5.4638    0.0000 C   0  0
    5.0000   -5.1241    0.0000 C   0  0
    6.4298   -5.0000    0.0000 C   0  0
  2  1  1  0
  3  1  1  0
  4  6  1  0
  5  4  2  0
  6  2  1  0
  7  1  1  0
  8  3  1  0
  9  7  1  0
 10  5  1  0
 11  4  1  0
 12  3  1  0
 13 11  1  0
 14 10  1  0
 15  2  2  0
 16 17  1  0
 17  7  1  0
 18 22  1  0
 19 12  2  0
 20 14  2  0
 21 14  1  0
 22 21  2  0
 23 20  1  0
 24 12  1  0
 25 18  1  0
 26 25  1  0
 27 25  1  0
  9  8  1  0
  8 16  1  0
 10 13  2  0
 18 23  2  0
M  END
> <COMPOUND_ID>
DNDI1417851

$$$$

  SciTegic04051205032D

 27 29  0  0  0  0            999 V2000
    9.1604   -7.4771    0.0000 S   0  0
    9.8785   -7.0613    0.0000 C   0  0
    5.0000   -7.1988    0.0000 N   0  0
    6.3021   -7.4771    0.0000 N   0  0
    5.5497   -7.8103    0.0000 C   0  0
    6.2196   -6.6525    0.0000 C   0  0
    5.4123   -6.4773    0.0000 C   0  0
   10.5930   -7.4771    0.0000 C   0  0
   10.5930   -8.3016    0.0000 N   0  0
    9.5727   -8.1882    0.0000 O   0  0
    8.7482   -6.7556    0.0000 O   0  0
    8.4459   -7.8893    0.0000 N   0  0
    9.8785   -8.7139    0.0000 C   0  0
    9.8785   -6.2368    0.0000 C   0  0
   11.3042   -7.0613    0.0000 C   0  0
    9.1604   -8.3016    0.0000 O   0  0
    7.7347   -7.4771    0.0000 C   0  0
    7.0201   -7.8893    0.0000 C   0  0
   10.5930   -5.8245    0.0000 C   0  0
    5.3813   -8.6143    0.0000 C   0  0
   11.3042   -6.2368    0.0000 C   0  0
    6.7659   -6.0341    0.0000 C   0  0
    5.1581   -5.6940    0.0000 C   0  0
    9.8785   -9.5384    0.0000 C   0  0
   10.5930   -5.0000    0.0000 C   0  0
    6.5151   -5.2508    0.0000 C   0  0
    5.7112   -5.0825    0.0000 C   0  0
  2  1  1  0
  3  5  2  0
  4 18  1  0
  5  4  1  0
  6  4  1  0
  7  6  1  0
  8  2  1  0
  9  8  1  0
 10  1  2  0
 11  1  2  0
 12  1  1  0
 13  9  1  0
 14  2  2  0
 15  8  2  0
 16 13  2  0
 17 12  1  0
 18 17  1  0
 19 14  1  0
 20  5  1  0
 21 19  2  0
 22  6  2  0
 23  7  2  0
 24 13  1  0
 25 19  1  0
 26 22  1  0
 27 26  2  0
 15 21  1  0
  7  3  1  0
 27 23  1  0
M  END
> <COMPOUND_ID>
DNDI1417852

$$$$

  SciTegic04051205032D

 24 26  0  0  0  0            999 V2000
    7.8429   -9.1182    0.0000 S   0  0
    6.4095   -6.6431    0.0000 S   0  0
    7.1210   -6.2376    0.0000 N   0  0
    7.1176   -9.5238    0.0000 C   0  0
    7.8429   -6.6501    0.0000 C   0  0
    8.5545   -8.7057    0.0000 N   0  0
    7.0213  -10.3489    0.0000 S   0  0
    7.8360   -7.4613    0.0000 C   0  0
    7.4304   -8.4032    0.0000 O   0  0
    8.2485   -9.8332    0.0000 O   0  0
    5.9969   -5.9247    0.0000 O   0  0
    6.8220   -7.3616    0.0000 O   0  0
    8.5545   -7.8876    0.0000 C   0  0
    8.5613   -6.2306    0.0000 C   0  0
    6.3579   -9.1835    0.0000 C   0  0
    6.2169  -10.4967    0.0000 C   0  0
    5.8079   -9.7713    0.0000 C   0  0
    9.2729   -6.6363    0.0000 C   0  0
    5.6979   -7.0488    0.0000 C   0  0
    7.1210   -5.4022    0.0000 C   0  0
    9.2729   -7.4681    0.0000 C   0  0
    7.8463   -5.0000    0.0000 C   0  0
    8.5613   -5.4125    0.0000 C   0  0
    5.0000   -6.6260    0.0000 C   0  0
  2  3  1  0
  3  5  1  0
  4  1  1  0
  5  8  1  0
  6  1  1  0
  7  4  1  0
  8 13  2  0
  9  1  2  0
 10  1  2  0
 11  2  2  0
 12  2  2  0
 13  6  1  0
 14 18  1  0
 15  4  2  0
 16  7  1  0
 17 15  1  0
 18 21  2  0
 19  2  1  0
 20  3  1  0
 21 13  1  0
 22 23  1  0
 23 14  1  0
 24 19  1  0
 16 17  2  0
 14  5  2  0
 20 22  1  0
M  END
> <COMPOUND_ID>
DNDI1417853

$$$$

  SciTegic04051205032D

 21 23  0  0  0  0            999 V2000
    8.1593   -7.1602    0.0000 C   0  0
    8.6410   -7.8373    0.0000 C   0  0
    7.3844   -7.4066    0.0000 C   0  0
    8.1593   -8.4834    0.0000 N   0  0
    8.4568   -6.3964    0.0000 C   0  0
    7.1247   -5.8769    0.0000 C   0  0
    6.4830   -5.3507    0.0000 S   0  0
    7.3844   -8.2303    0.0000 C   0  0
    7.9328   -5.7548    0.0000 C   0  0
    5.7882   -5.8081    0.0000 C   0  0
    6.8250   -6.6340    0.0000 C   0  0
    5.9991   -6.5807    0.0000 C   0  0
    6.6673   -6.9848    0.0000 C   0  0
    9.4669   -7.8529    0.0000 O   0  0
    8.2325   -5.0000    0.0000 O   0  0
    6.6673   -8.6521    0.0000 C   0  0
    7.8284   -6.3964    0.0000 O   0  0
    5.0000   -5.5195    0.0000 Cl  0  0
    5.9458   -7.4066    0.0000 C   0  0
    5.9458   -8.2303    0.0000 C   0  0
    5.2109   -6.9848    0.0000 Br  0  0
  2  1  1  0
  3  1  1  0
  4  2  1  0
  5  1  1  0
  6  9  1  0
  7  6  1  0
  8  3  2  0
  9  5  1  0
 10  7  1  0
 11  6  2  0
 12 11  1  0
 13  3  1  0
 14  2  2  0
 15  9  2  0
 16  8  1  0
 17  1  1  0
 18 10  1  0
 19 13  2  0
 20 19  1  0
 21 19  1  0
  4  8  1  0
 20 16  2  0
 10 12  2  0
M  END
> <COMPOUND_ID>
DNDI1417854

$$$$

  SciTegic04051205032D

 24 26  0  0  0  0            999 V2000
    6.8141   -7.1276    0.0000 C   0  0
    7.1226   -6.3674    0.0000 N   0  0
    5.9897   -7.0832    0.0000 C   0  0
    6.4760   -5.8367    0.0000 N   0  0
    5.7701   -6.2860    0.0000 C   0  0
    7.2534   -7.8384    0.0000 C   0  0
    9.7265   -9.1860    0.0000 C   0  0
   10.5706   -9.1860    0.0000 C   0  0
    8.4677   -8.4481    0.0000 N   0  0
    9.3069   -9.9265    0.0000 C   0  0
    8.0975   -7.8014    0.0000 N   0  0
    6.8807   -8.5715    0.0000 O   0  0
    9.2946   -8.4481    0.0000 C   0  0
    5.4739   -7.7545    0.0000 Br  0  0
   10.9976   -9.9265    0.0000 C   0  0
    9.7265  -10.6743    0.0000 C   0  0
   10.5706  -10.6669    0.0000 C   0  0
    5.0000   -5.9848    0.0000 C   0  0
    6.5179   -5.0000    0.0000 C   0  0
    8.7985   -9.9314    0.0000 O   0  0
   10.9976   -8.4481    0.0000 C   0  0
   11.8417   -9.9265    0.0000 C   0  0
   11.8417   -8.4481    0.0000 C   0  0
   12.2686   -9.1860    0.0000 C   0  0
  2  1  2  0
  3  1  1  0
  4  2  1  0
  5  3  2  0
  6  1  1  0
  7 13  1  0
  8  7  1  0
  9 11  1  0
 10  7  2  0
 11  6  1  0
 12  6  2  0
 13  9  2  0
 14  3  1  0
 15  8  2  0
 16 10  1  0
 17 16  2  0
 18  5  1  0
 19  4  1  0
 20 10  1  0
 21  8  1  0
 22 15  1  0
 23 21  2  0
 24 23  1  0
  4  5  1  0
 17 15  1  0
 24 22  2  0
M  END
> <COMPOUND_ID>
DNDI1417855

$$$$

  SciTegic04051205032D

 25 27  0  0  0  0            999 V2000
    9.9876   -8.7089    0.0000 N   0  0
    7.8530   -9.9394    0.0000 C   0  0
    8.5542   -9.5270    0.0000 N   0  0
    9.2761   -8.2895    0.0000 C   0  0
    8.5646   -8.7020    0.0000 C   0  0
    7.1415   -9.5270    0.0000 C   0  0
    9.2761   -7.4680    0.0000 C   0  0
    7.8530  -10.7644    0.0000 O   0  0
    6.4300   -9.9360    0.0000 C   0  0
    7.1415   -8.7020    0.0000 C   0  0
    9.9979   -7.0555    0.0000 C   0  0
    8.5714   -7.0658    0.0000 C   0  0
    5.7115   -8.6917    0.0000 C   0  0
    6.4334   -8.2861    0.0000 C   0  0
    5.7115   -9.5235    0.0000 C   0  0
    8.5646   -6.2305    0.0000 C   0  0
    9.9979   -6.2305    0.0000 C   0  0
    9.2761   -5.8180    0.0000 C   0  0
    5.0000   -8.2792    0.0000 Br  0  0
   10.0598   -9.5270    0.0000 C   0  0
   10.7472   -8.3720    0.0000 C   0  0
    9.2761   -5.0000    0.0000 C   0  0
   11.2938   -8.9907    0.0000 C   0  0
   10.8710   -9.7023    0.0000 C   0  0
    9.2761   -9.9394    0.0000 H   0  0
  2  3  1  0
  3  5  1  0
  4  1  1  0
  5  4  1  0
  6  2  1  0
  7  4  1  0
  8  2  2  0
  9  6  1  0
 10  6  2  0
 11  7  2  0
 12  7  1  0
 13 14  2  0
 14 10  1  0
 15  9  2  0
 16 12  2  0
 17 11  1  0
 18 16  1  0
 19 13  1  0
 20  1  1  0
 21  1  1  0
 22 18  1  0
 23 21  1  0
 24 20  1  0
 24 23  1  0
 17 18  2  0
 15 13  1  0
 25  3  1  0
M  END
> <COMPOUND_ID>
DNDI1417856

$$$$

  SciTegic04051205032D

 29 32  0  0  0  0            999 V2000
    7.7568   -7.0349    0.0000 C   0  0
    7.2034   -7.6399    0.0000 N   0  0
    7.3684   -6.3509    0.0000 O   0  0
    6.4678   -7.3271    0.0000 C   0  0
    8.5749   -7.0624    0.0000 C   0  0
   11.1082   -5.7047    0.0000 C   0  0
   10.2798   -5.7047    0.0000 N   0  0
    9.0320   -6.3853    0.0000 C   0  0
    9.8363   -6.4230    0.0000 C   0  0
    6.5434   -6.4952    0.0000 C   0  0
   11.5516   -6.4540    0.0000 C   0  0
    5.6944   -7.6468    0.0000 N   0  0
   11.5516   -5.0000    0.0000 O   0  0
   12.3663   -6.4540    0.0000 C   0  0
   12.7684   -7.1621    0.0000 C   0  0
    8.9495   -7.8118    0.0000 C   0  0
   10.2385   -7.1483    0.0000 C   0  0
    8.6436   -5.6772    0.0000 C   0  0
   13.5865   -7.1415    0.0000 O   0  0
   11.1082   -7.1415    0.0000 C   0  0
    9.7814   -7.8393    0.0000 C   0  0
   11.5516   -7.8943    0.0000 C   0  0
    5.8971   -6.0518    0.0000 C   0  0
    5.0000   -7.2034    0.0000 C   0  0
   12.3456   -7.8943    0.0000 C   0  0
   14.0230   -7.8633    0.0000 C   0  0
   13.6897   -8.5886    0.0000 C   0  0
    5.1237   -6.3509    0.0000 C   0  0
   14.1605   -9.2520    0.0000 C   0  0
  2  1  2  0
  3  1  1  0
  4  2  1  0
  5  1  1  0
  6  7  1  0
  7  9  1  0
  8  5  2  0
  9  8  1  0
 10  3  1  0
 11  6  1  0
 12  4  1  0
 13  6  2  0
 14 11  1  0
 15 14  2  0
 16  5  1  0
 17 21  1  0
 18  8  1  0
 19 15  1  0
 20 11  2  0
 21 16  2  0
 22 20  1  0
 23 10  1  0
 24 12  2  0
 25 22  2  0
 26 19  1  0
 27 26  1  0
 28 23  2  0
 29 27  1  0
  4 10  2  0
  9 17  2  0
 24 28  1  0
 25 15  1  0
M  END
> <COMPOUND_ID>
DNDI1417857

$$$$

  SciTegic04051205032D

 29 32  0  0  0  0            999 V2000
   11.5393   -9.7286    0.0000 N   0  0
   10.7526   -9.4789    0.0000 C   0  0
   10.7484   -8.6547    0.0000 C   0  0
   12.0221   -9.0543    0.0000 N   0  0
   10.0283   -8.2426    0.0000 C   0  0
   11.8016  -10.5112    0.0000 C   0  0
   11.5268   -8.3925    0.0000 C   0  0
   10.0408   -9.9035    0.0000 N   0  0
    9.3166   -8.6672    0.0000 N   0  0
   12.6132  -10.6735    0.0000 C   0  0
   10.0159   -7.4268    0.0000 N   0  0
    7.1395   -5.8242    0.0000 C   0  0
    9.3290   -9.4914    0.0000 C   0  0
   11.2604  -11.1272    0.0000 C   0  0
    7.8596   -6.2238    0.0000 C   0  0
   12.8755  -11.4519    0.0000 C   0  0
    7.1354   -5.0000    0.0000 O   0  0
    9.2999   -7.0272    0.0000 C   0  0
    8.5673   -5.8117    0.0000 C   0  0
    7.8763   -7.0604    0.0000 C   0  0
   11.5226  -11.9139    0.0000 C   0  0
   12.3260  -12.0763    0.0000 C   0  0
    6.4361   -6.2487    0.0000 O   0  0
    8.5881   -7.4559    0.0000 C   0  0
    9.2916   -6.1988    0.0000 C   0  0
   13.1627  -10.0533    0.0000 C   0  0
    5.7118   -5.8367    0.0000 C   0  0
   12.5883  -12.8505    0.0000 C   0  0
    5.0000   -6.2612    0.0000 C   0  0
  2  1  1  0
  3  2  2  0
  4  1  1  0
  5  3  1  0
  6  1  1  0
  7  4  2  0
  8  2  1  0
  9 13  1  0
 10  6  2  0
 11  5  1  0
 12 15  1  0
 13  8  2  0
 14  6  1  0
 15 19  2  0
 16 10  1  0
 17 12  2  0
 18 11  1  0
 19 25  1  0
 20 24  2  0
 21 14  2  0
 22 21  1  0
 23 12  1  0
 24 18  1  0
 25 18  2  0
 26 10  1  0
 27 23  1  0
 28 22  1  0
 29 27  1  0
  3  7  1  0
 16 22  2  0
  9  5  2  0
 20 15  1  0
M  END
> <COMPOUND_ID>
DNDI1417858

$$$$

  SciTegic04051205032D

 29 32  0  0  0  0            999 V2000
   10.0465   -7.2179    0.0000 N   0  0
   10.0251   -6.4143    0.0000 C   0  0
    8.6322   -7.2822    0.0000 C   0  0
    9.3555   -7.6625    0.0000 C   0  0
    8.6001   -6.4625    0.0000 C   0  0
    7.9197   -7.7268    0.0000 C   0  0
    9.2751   -6.0125    0.0000 C   0  0
    7.8393   -6.0928    0.0000 C   0  0
    7.1697   -7.3464    0.0000 C   0  0
    7.1322   -6.5429    0.0000 C   0  0
   10.7322   -5.9643    0.0000 O   0  0
   10.7859   -7.6036    0.0000 C   0  0
    9.3983   -8.4821    0.0000 C   0  0
    6.4625   -7.7911    0.0000 O   0  0
    6.3822   -6.1678    0.0000 O   0  0
   10.8126   -8.4339    0.0000 C   0  0
   11.4609   -7.1697    0.0000 C   0  0
   10.1108   -8.8572    0.0000 C   0  0
    8.6965   -8.9215    0.0000 C   0  0
    5.7072   -7.4268    0.0000 C   0  0
    6.3500   -5.3535    0.0000 C   0  0
    5.0000   -7.8607    0.0000 C   0  0
    5.5893   -5.0000    0.0000 C   0  0
    8.7287   -9.7411    0.0000 C   0  0
   11.5252   -8.8036    0.0000 C   0  0
   12.1841   -7.5393    0.0000 C   0  0
   10.1537   -9.6769    0.0000 C   0  0
    9.4626  -10.1108    0.0000 C   0  0
   12.2269   -8.3696    0.0000 C   0  0
  2  1  1  0
  3  4  1  0
  4  1  1  0
  5  3  1  0
  6  3  2  0
  7  2  1  0
  8  5  2  0
  9  6  1  0
 10  9  2  0
 11  2  2  0
 12  1  1  0
 13  4  1  0
 14  9  1  0
 15 10  1  0
 16 12  2  0
 17 12  1  0
 18 13  1  0
 19 13  2  0
 20 14  1  0
 21 15  1  0
 22 20  1  0
 23 21  1  0
 24 19  1  0
 25 16  1  0
 26 17  2  0
 27 18  2  0
 28 24  2  0
 29 26  1  0
  5  7  1  0
 29 25  2  0
 28 27  1  0
  8 10  1  0
M  END
> <COMPOUND_ID>
DNDI1417859

$$$$

  SciTegic04051205032D

 27 29  0  0  0  0            999 V2000
    7.1396   -8.3041    0.0000 C   0  0
    7.8577   -8.7262    0.0000 N   0  0
    7.8577   -9.5413    0.0000 C   0  0
    7.1396   -9.9585    0.0000 N   0  0
    6.4168   -8.7262    0.0000 C   0  0
    7.1396   -7.4695    0.0000 N   0  0
    7.8577   -7.0669    0.0000 C   0  0
    6.4168   -9.5413    0.0000 C   0  0
    8.5855   -9.9585    0.0000 C   0  0
    8.5855   -7.4695    0.0000 C   0  0
    8.5855   -5.8393    0.0000 C   0  0
    7.8868   -6.2518    0.0000 C   0  0
    9.3084   -7.0669    0.0000 C   0  0
    9.3084   -6.2518    0.0000 C   0  0
    9.3084   -9.5655    0.0000 O   0  0
   10.0265   -7.4695    0.0000 Cl  0  0
    8.5855  -10.7736    0.0000 O   0  0
    7.1396   -5.8151    0.0000 O   0  0
   10.0265   -5.8588    0.0000 O   0  0
    5.7181   -8.3041    0.0000 C   0  0
    5.7181   -9.9585    0.0000 C   0  0
    7.8577  -11.1957    0.0000 C   0  0
    7.1591   -5.0000    0.0000 C   0  0
   10.7106   -6.2809    0.0000 C   0  0
    5.0000   -8.7262    0.0000 C   0  0
    7.8577  -12.0108    0.0000 C   0  0
    5.0000   -9.5413    0.0000 C   0  0
  2  1  2  0
  3  2  1  0
  4  8  1  0
  5  1  1  0
  6  1  1  0
  7  6  1  0
  8  5  2  0
  9  3  1  0
 10  7  2  0
 11 12  2  0
 12  7  1  0
 13 10  1  0
 14 11  1  0
 15  9  2  0
 16 13  1  0
 17  9  1  0
 18 12  1  0
 19 14  1  0
 20  5  1  0
 21  8  1  0
 22 17  1  0
 23 18  1  0
 24 19  1  0
 25 20  2  0
 26 22  1  0
 27 25  1  0
  4  3  2  0
 21 27  2  0
 13 14  2  0
M  END
> <COMPOUND_ID>
DNDI1417860

$$$$

  SciTegic04051205032D

 27 30  0  0  0  0            999 V2000
    8.5266   -9.8190    0.0000 N   0  0
    7.8529   -9.4305    0.0000 C   0  0
    9.1968   -9.4305    0.0000 C   0  0
    7.8529   -8.6469    0.0000 N   0  0
    9.2002   -8.6469    0.0000 C   0  0
    8.5266   -8.2516    0.0000 C   0  0
   10.5580   -9.4305    0.0000 N   0  0
    9.8739   -9.8258    0.0000 N   0  0
    7.1379   -9.8362    0.0000 N   0  0
   10.5580   -8.6469    0.0000 C   0  0
    8.5163   -7.4370    0.0000 N   0  0
    5.7149  -10.6679    0.0000 N   0  0
    6.3818   -7.0314    0.0000 C   0  0
    7.0933   -7.4370    0.0000 C   0  0
    7.8116   -7.0314    0.0000 C   0  0
    6.3851   -6.2065    0.0000 C   0  0
    7.1379  -10.6611    0.0000 C   0  0
    6.4195   -9.4305    0.0000 C   0  0
    7.0933   -5.8043    0.0000 C   0  0
    5.7149   -9.8430    0.0000 C   0  0
    6.4195  -11.0736    0.0000 C   0  0
    5.6806   -7.4370    0.0000 Cl  0  0
    7.8048   -6.2168    0.0000 C   0  0
    9.8739  -10.6027    0.0000 C   0  0
    5.6806   -5.7940    0.0000 O   0  0
    5.0000  -11.0804    0.0000 C   0  0
    5.8902   -5.0000    0.0000 C   0  0
  2  1  2  0
  3  1  1  0
  4  2  1  0
  5  3  2  0
  6  5  1  0
  7  8  1  0
  8  3  1  0
  9  2  1  0
 10  5  1  0
 11  6  1  0
 12 20  1  0
 13 14  1  0
 14 15  2  0
 15 11  1  0
 16 19  1  0
 17  9  1  0
 18  9  1  0
 19 23  2  0
 20 18  1  0
 21 17  1  0
 22 13  1  0
 23 15  1  0
 24  8  1  0
 25 16  1  0
 26 12  1  0
 27 25  1  0
 10  7  2  0
  4  6  2  0
 12 21  1  0
 13 16  2  0
M  END
> <COMPOUND_ID>
DNDI1417861

$$$$

  SciTegic04051205032D

 27 29  0  0  0  0            999 V2000
    7.1411   -7.8125    0.0000 C   0  0
    7.5097   -7.1280    0.0000 C   0  0
    5.9828   -8.4838    0.0000 C   0  0
    6.7857   -8.4838    0.0000 C   0  0
    5.5528   -7.8125    0.0000 O   0  0
    8.3434   -7.1280    0.0000 C   0  0
    7.1324   -6.4435    0.0000 C   0  0
   10.7873  -11.4981    0.0000 C   0  0
    8.2907   -5.6845    0.0000 C   0  0
    7.4878   -5.6845    0.0000 C   0  0
    8.6856   -6.3953    0.0000 C   0  0
    8.6330   -9.2517    0.0000 N   0  0
    5.9433   -7.1280    0.0000 C   0  0
    9.8395   -9.9493    0.0000 C   0  0
   11.1603  -12.1870    0.0000 Cl  0  0
    9.8922  -11.4762    0.0000 C   0  0
   11.2085  -10.6601    0.0000 C   0  0
    6.7375   -7.1280    0.0000 C   0  0
    9.4491  -10.7083    0.0000 C   0  0
   10.7522   -9.9712    0.0000 C   0  0
    7.4878   -8.4970    0.0000 C   0  0
    8.6812   -5.0000    0.0000 O   0  0
    5.5002   -9.1814    0.0000 C   0  0
    5.0000   -8.4838    0.0000 C   0  0
    9.4359   -9.2517    0.0000 C   0  0
    8.3171   -8.4970    0.0000 C   0  0
    9.4754   -5.0000    0.0000 C   0  0
  2  1  1  0
  3  4  1  0
  4  1  1  0
  5 13  1  0
  6  2  2  0
  7  2  1  0
  8 17  1  0
  9 10  1  0
 10  7  2  0
 11  6  1  0
 12 26  1  0
 13 18  1  0
 14 25  1  0
 15  8  1  0
 16 19  1  0
 17 20  2  0
 18  1  1  0
 19 14  2  0
 20 14  1  0
 21  1  1  0
 22  9  1  0
 23  3  1  0
 24  3  1  0
 25 12  1  0
 26 21  1  0
 27 22  1  0
  3  5  1  0
  9 11  2  0
 16  8  2  0
M  END
> <COMPOUND_ID>
DNDI1417862

$$$$

  SciTegic04051205032D

 24 26  0  0  0  0            999 V2000
    7.5843   -5.9003    0.0000 N   0  0
    7.1232   -5.2474    0.0000 N   0  0
    7.1185   -6.5304    0.0000 N   0  0
    6.3561   -6.2748    0.0000 C   0  0
    6.3698   -5.4894    0.0000 C   0  0
   11.7621   -6.6811    0.0000 C   0  0
    8.7897   -6.9186    0.0000 C   0  0
    8.1094   -7.4482    0.0000 C   0  0
   10.5202   -7.3706    0.0000 N   0  0
    7.3423   -7.2747    0.0000 C   0  0
   12.1913   -5.9734    0.0000 C   0  0
   12.1639   -7.3934    0.0000 C   0  0
    9.5704   -7.3569    0.0000 N   0  0
   10.9402   -6.6674    0.0000 C   0  0
    8.7897   -5.8592    0.0000 O   0  0
   13.0132   -5.9871    0.0000 C   0  0
   12.9858   -7.4071    0.0000 C   0  0
   13.4104   -6.6994    0.0000 C   0  0
   13.3830   -8.1240    0.0000 Br  0  0
   11.7941   -5.2565    0.0000 O   0  0
    5.6712   -6.6583    0.0000 C   0  0
    5.6849   -5.0785    0.0000 C   0  0
    5.0000   -6.2611    0.0000 C   0  0
    5.0000   -5.4666    0.0000 C   0  0
  2  1  2  0
  3  1  1  0
  4  3  1  0
  5  2  1  0
  6 14  1  0
  7  8  1  0
  8 10  1  0
  9 13  1  0
 10  3  1  0
 11  6  1  0
 12  6  2  0
 13  7  1  0
 14  9  2  0
 15  7  2  0
 16 11  2  0
 17 12  1  0
 18 17  2  0
 19 17  1  0
 20 11  1  0
 21  4  1  0
 22  5  1  0
 23 21  2  0
 24 22  2  0
  5  4  2  0
 24 23  1  0
 16 18  1  0
M  END
> <COMPOUND_ID>
DNDI1417863

$$$$

  SciTegic04051205032D

 19 20  0  0  0  0            999 V2000
    6.1871   -7.6747    0.0000 N   0  0
    7.6810   -7.6590    0.0000 C   0  0
    5.7799   -7.0201    0.0000 C   0  0
    8.0569   -8.3168    0.0000 N   0  0
    6.1589   -6.3498    0.0000 C   0  0
    8.0537   -6.9825    0.0000 S   0  0
    5.7548   -5.7015    0.0000 C   0  0
    5.0219   -7.0295    0.0000 O   0  0
    8.8743   -8.3168    0.0000 C   0  0
    7.7718   -9.2000    0.0000 C   0  0
    5.0000   -5.7235    0.0000 I   0  0
    9.3817   -8.9525    0.0000 C   0  0
    8.2730   -9.8483    0.0000 C   0  0
    6.9262   -6.3248    0.0000 C   0  0
    9.0904   -9.7168    0.0000 C   0  0
    6.1213   -5.0250    0.0000 C   0  0
    9.5978  -10.3651    0.0000 C   0  0
    7.2738   -5.6483    0.0000 C   0  0
    6.8698   -5.0000    0.0000 C   0  0
  2  1  1  0
  3  1  1  0
  4  2  1  0
  5  3  1  0
  6  2  2  0
  7  5  1  0
  8  3  2  0
  9  4  1  0
 10  4  1  0
 11  7  1  0
 12  9  1  0
 13 10  1  0
 14  5  2  0
 15 13  1  0
 16  7  2  0
 17 15  1  0
 18 14  1  0
 19 18  2  0
 15 12  1  0
 19 16  1  0
M  END
> <COMPOUND_ID>
DNDI1417864

$$$$

  SciTegic04051205032D

 24 26  0  0  0  0            999 V2000
    7.2118   -9.3587    0.0000 N   0  0
    7.6991  -10.0210    0.0000 C   0  0
    7.2326  -10.6958    0.0000 N   0  0
    6.4328   -9.6211    0.0000 C   0  0
    6.4328  -10.4458    0.0000 C   0  0
    7.4492   -8.5714    0.0000 C   0  0
    8.5322  -10.0085    0.0000 N   0  0
    8.2615   -8.3923    0.0000 C   0  0
    8.4989   -7.6092    0.0000 C   0  0
    9.3111   -7.4301    0.0000 C   0  0
    7.9491   -7.0094    0.0000 C   0  0
    7.4867  -11.4788    0.0000 C   0  0
    8.9987   -6.0430    0.0000 C   0  0
    8.1865   -6.2222    0.0000 C   0  0
    9.5485   -6.6471    0.0000 C   0  0
    8.8196   -8.9963    0.0000 O   0  0
    9.2361   -5.2475    0.0000 Br  0  0
    5.7123   -9.2087    0.0000 C   0  0
    5.7123  -10.8707    0.0000 C   0  0
    6.9369  -12.0953    0.0000 C   0  0
    6.1329  -11.9412    0.0000 C   0  0
    5.0000  -10.4583    0.0000 C   0  0
    5.0000   -9.6294    0.0000 C   0  0
    6.1329  -12.7576    0.0000 C   0  0
  2  1  1  0
  3  2  1  0
  4  1  1  0
  5  4  1  0
  6  1  1  0
  7  2  2  0
  8  6  1  0
  9  8  1  0
 10  9  2  0
 11  9  1  0
 12  3  1  0
 13 14  1  0
 14 11  2  0
 15 10  1  0
 16  8  1  0
 17 13  1  0
 18  4  2  0
 19  5  2  0
 20 12  1  0
 21 20  1  0
 22 23  2  0
 23 18  1  0
 24 21  1  0
  3  5  1  0
 22 19  1  0
 13 15  2  0
M  END
> <COMPOUND_ID>
DNDI1417865

$$$$

  SciTegic04051205032D

 26 29  0  0  0  0            999 V2000
    7.5416   -8.5224    0.0000 N   0  0
    7.9829   -7.7860    0.0000 C   0  0
    8.8187   -7.9818    0.0000 N   0  0
    8.1109   -9.1649    0.0000 N   0  0
    8.8970   -8.8306    0.0000 N   0  0
    6.8130   -8.3031    0.0000 C   0  0
    5.9668   -8.4493    0.0000 C   0  0
    6.0947   -7.6136    0.0000 O   0  0
    6.4134   -7.9244    0.0000 C   0  0
    5.7161   -6.9868    0.0000 C   0  0
    6.3350   -6.9398    0.0000 C   0  0
   12.2059   -6.0153    0.0000 C   0  0
    5.1650   -7.1983    0.0000 O   0  0
    9.4637   -7.4177    0.0000 C   0  0
    7.6487   -6.9946    0.0000 S   0  0
    5.2042   -8.0550    0.0000 C   0  0
   11.3989   -5.7384    0.0000 O   0  0
    6.8887   -6.2843    0.0000 O   0  0
   10.2682   -7.7024    0.0000 C   0  0
    9.2992   -6.5899    0.0000 C   0  0
   12.8615   -5.4590    0.0000 F   0  0
   12.3731   -6.8614    0.0000 F   0  0
   11.8351   -5.2475    0.0000 F   0  0
   10.7486   -6.3000    0.0000 C   0  0
   10.9132   -7.1383    0.0000 C   0  0
    9.9391   -6.0231    0.0000 C   0  0
  2  1  1  0
  3  2  1  0
  4  1  1  0
  5  4  2  0
  6  1  1  0
  7  6  1  0
  8  7  1  0
  9  6  1  0
 10 11  1  0
 11  9  1  0
 12 17  1  0
 13 16  1  0
 14  3  1  0
 15  2  2  0
 16  7  1  0
 17 24  1  0
 18 11  2  0
 19 14  2  0
 20 14  1  0
 21 12  1  0
 22 12  1  0
 23 12  1  0
 24 26  1  0
 25 19  1  0
 26 20  2  0
  5  3  1  0
 10  8  1  0
 13 10  1  0
 24 25  2  0
M  END
> <COMPOUND_ID>
DNDI1417866

$$$$

  SciTegic04051205032D

 29 31  0  0  0  0            999 V2000
    8.9427   -9.4042    0.0000 C   0  0
    8.9473   -8.6321    0.0000 C   0  0
    7.6041   -9.3905    0.0000 N   0  0
    8.2711   -9.7880    0.0000 N   0  0
    9.6052   -9.7971    0.0000 C   0  0
    7.6041   -8.6230    0.0000 C   0  0
   11.2636   -9.4180    0.0000 N   0  0
   12.8946   -9.8519    0.0000 C   0  0
    6.8914   -8.0062    0.0000 C   0  0
   10.2859   -9.4180    0.0000 N   0  0
    9.6006  -10.5692    0.0000 O   0  0
   12.7255   -9.0479    0.0000 C   0  0
   11.9443   -8.8012    0.0000 C   0  0
    7.1198   -7.2661    0.0000 C   0  0
    6.1376   -8.1798    0.0000 C   0  0
    5.3015   -6.3067    0.0000 O   0  0
    5.8361   -6.8778    0.0000 C   0  0
   13.6758  -10.1032    0.0000 C   0  0
    5.6031   -7.6088    0.0000 C   0  0
    6.5899   -6.6996    0.0000 C   0  0
    5.5299   -5.5666    0.0000 C   0  0
   13.3332   -8.4997    0.0000 C   0  0
   13.8540  -10.9073    0.0000 C   0  0
   14.2926   -9.5504    0.0000 C   0  0
    5.0000   -5.0000    0.0000 C   0  0
    6.2837   -5.3884    0.0000 C   0  0
   15.0738   -9.8017    0.0000 C   0  0
   14.6443  -11.1586    0.0000 C   0  0
   15.2520  -10.6058    0.0000 C   0  0
  2  1  2  0
  3  4  1  0
  4  1  1  0
  5  1  1  0
  6  2  1  0
  7 10  1  0
  8 12  2  0
  9  6  1  0
 10  5  1  0
 11  5  2  0
 12 13  1  0
 13  7  2  0
 14  9  1  0
 15  9  2  0
 16 17  1  0
 17 19  2  0
 18  8  1  0
 19 15  1  0
 20 14  2  0
 21 16  1  0
 22 12  1  0
 23 18  2  0
 24 18  1  0
 25 21  1  0
 26 21  1  0
 27 24  2  0
 28 23  1  0
 29 27  1  0
  6  3  2  0
 20 17  1  0
 28 29  2  0
M  END
> <COMPOUND_ID>
DNDI1417867

$$$$

  SciTegic04051205032D

 29 32  0  0  0  0            999 V2000
   13.7168   -7.1421    0.0000 N   0  0
   12.4010   -7.3126    0.0000 C   0  0
   13.0829   -7.7278    0.0000 C   0  0
   13.3758   -6.4513    0.0000 C   0  0
   12.5890   -6.5169    0.0000 C   0  0
   13.0829   -8.5454    0.0000 C   0  0
    6.3989   -8.4536    0.0000 C   0  0
   11.6710   -7.7278    0.0000 C   0  0
    6.3989   -7.6273    0.0000 C   0  0
    7.1071   -8.8688    0.0000 C   0  0
    7.1071   -7.2077    0.0000 C   0  0
   14.4993   -7.2951    0.0000 C   0  0
   11.6710   -8.5454    0.0000 C   0  0
   12.4010   -8.9519    0.0000 C   0  0
    7.8240   -8.4536    0.0000 C   0  0
    7.8240   -7.6273    0.0000 C   0  0
    5.6864   -8.8819    0.0000 O   0  0
    9.9661   -8.8688    0.0000 N   0  0
   13.7299   -5.6951    0.0000 C   0  0
   12.0862   -5.8350    0.0000 C   0  0
    5.6864   -7.2208    0.0000 O   0  0
   10.9846   -8.9388    0.0000 C   0  0
    9.2535   -8.4536    0.0000 C   0  0
    8.5366   -8.8688    0.0000 C   0  0
    5.0000   -8.4798    0.0000 C   0  0
    5.6864   -6.4164    0.0000 C   0  0
   14.7922   -8.0295    0.0000 C   0  0
   12.4316   -5.0874    0.0000 C   0  0
   13.2447   -5.0000    0.0000 C   0  0
  2  3  2  0
  3  1  1  0
  4  1  1  0
  5  4  2  0
  6  3  1  0
  7 10  2  0
  8  2  1  0
  9 11  2  0
 10 15  1  0
 11 16  1  0
 12  1  1  0
 13 14  1  0
 14  6  2  0
 15 24  1  0
 16 15  2  0
 17  7  1  0
 18 22  1  0
 19  4  1  0
 20  5  1  0
 21  9  1  0
 22 13  1  0
 23 18  1  0
 24 23  1  0
 25 17  1  0
 26 21  1  0
 27 12  1  0
 28 29  1  0
 29 19  2  0
  2  5  1  0
 28 20  2  0
 13  8  2  0
  7  9  1  0
M  END
> <COMPOUND_ID>
DNDI1417868

$$$$

  SciTegic04051205032D

 28 31  0  0  0  0            999 V2000
    8.5730   -8.6730    0.0000 N   0  0
    9.2894   -9.9181    0.0000 N   0  0
    8.5772   -9.5100    0.0000 C   0  0
    9.9973   -9.5100    0.0000 C   0  0
    9.2769   -8.2815    0.0000 C   0  0
    9.9973   -8.6730    0.0000 C   0  0
   10.7219   -9.9181    0.0000 C   0  0
    7.8526   -9.9181    0.0000 C   0  0
    9.2769   -7.4736    0.0000 C   0  0
   11.4507   -9.5100    0.0000 C   0  0
    7.8609  -10.7343    0.0000 C   0  0
    7.1405   -9.5058    0.0000 C   0  0
    8.5481   -7.0613    0.0000 C   0  0
    9.9973   -7.0613    0.0000 C   0  0
    6.4284  -10.7426    0.0000 C   0  0
    5.7163  -11.1466    0.0000 S   0  0
    7.1530  -11.1466    0.0000 C   0  0
    6.4284   -9.9181    0.0000 C   0  0
    9.9890   -6.2201    0.0000 C   0  0
    8.5481   -6.2201    0.0000 C   0  0
    9.2727   -5.8245    0.0000 C   0  0
   11.4632   -8.6730    0.0000 O   0  0
   10.7219  -10.7343    0.0000 C   0  0
   12.1586   -9.9181    0.0000 C   0  0
    5.0000  -10.7343    0.0000 C   0  0
    9.2644   -5.0000    0.0000 C   0  0
   11.4340  -11.1466    0.0000 C   0  0
   12.1461  -10.7343    0.0000 C   0  0
  2  3  1  0
  3  1  1  0
  4  6  1  0
  5  1  2  0
  6  5  1  0
  7  4  1  0
  8  3  1  0
  9  5  1  0
 10  7  2  0
 11  8  1  0
 12  8  2  0
 13  9  1  0
 14  9  2  0
 15 18  2  0
 16 15  1  0
 17 11  2  0
 18 12  1  0
 19 14  1  0
 20 13  2  0
 21 19  2  0
 22 10  1  0
 23  7  1  0
 24 10  1  0
 25 16  1  0
 26 21  1  0
 27 23  2  0
 28 27  1  0
  4  2  1  0
 15 17  1  0
 20 21  1  0
 28 24  2  0
M  END
> <COMPOUND_ID>
DNDI1417869

$$$$

  SciTegic04051205032D

 26 28  0  0  0  0            999 V2000
    7.8520   -7.4710    0.0000 S   0  0
    7.8520   -6.6546    0.0000 C   0  0
    8.5704   -6.2229    0.0000 C   0  0
    9.2852   -6.6256    0.0000 C   0  0
    9.9964   -6.2192    0.0000 C   0  0
    7.8520   -8.2983    0.0000 C   0  0
    8.6902   -7.4710    0.0000 O   0  0
    7.0356   -7.4710    0.0000 O   0  0
    7.1517   -6.2229    0.0000 C   0  0
   10.7548   -6.5494    0.0000 O   0  0
   10.0690   -5.4065    0.0000 C   0  0
   11.2918   -5.9290    0.0000 C   0  0
    9.2998   -7.4638    0.0000 O   0  0
   10.8673   -5.2177    0.0000 C   0  0
    8.5596   -8.7048    0.0000 C   0  0
    7.1408   -8.7011    0.0000 C   0  0
    7.1517   -5.4065    0.0000 C   0  0
    6.4151   -6.6546    0.0000 C   0  0
    5.7148   -5.4065    0.0000 C   0  0
    6.4151   -5.0000    0.0000 C   0  0
    5.7148   -6.2229    0.0000 C   0  0
    7.1227   -9.5175    0.0000 C   0  0
    8.5596   -9.5284    0.0000 C   0  0
    7.8483   -9.9348    0.0000 C   0  0
    5.0000   -5.0000    0.0000 Cl  0  0
    7.8375  -10.7730    0.0000 C   0  0
  2  1  1  0
  3  2  1  0
  4  3  1  0
  5  4  1  0
  6  1  1  0
  7  1  2  0
  8  1  2  0
  9  2  1  0
 10  5  1  0
 11  5  2  0
 12 10  1  0
 13  4  2  0
 14 11  1  0
 15  6  1  0
 16  6  2  0
 17  9  1  0
 18  9  2  0
 19 21  2  0
 20 17  2  0
 21 18  1  0
 22 16  1  0
 23 15  2  0
 24 22  2  0
 25 19  1  0
 26 24  1  0
 24 23  1  0
 19 20  1  0
 14 12  2  0
M  END
> <COMPOUND_ID>
DNDI1417870

$$$$

  SciTegic04051205032D

 24 26  0  0  0  0            999 V2000
    7.8846   -7.6198    0.0000 C   0  0
    8.3316   -8.2455    0.0000 C   0  0
    7.1041   -7.8742    0.0000 C   0  0
    7.8846   -8.9298    0.0000 N   0  0
    7.1041   -8.6891    0.0000 C   0  0
    8.7097   -6.8634    0.0000 C   0  0
    9.6552   -7.0319    0.0000 C   0  0
    6.4061   -9.0948    0.0000 C   0  0
    6.4061   -7.4616    0.0000 C   0  0
    9.1155   -8.3109    0.0000 O   0  0
   10.1469   -6.3889    0.0000 C   0  0
    7.4995   -6.7637    0.0000 O   0  0
    9.9268   -7.6060    0.0000 O   0  0
   11.4465   -5.8561    0.0000 N   0  0
    5.7048   -7.8742    0.0000 C   0  0
    8.1528   -9.7033    0.0000 C   0  0
    5.7048   -8.6891    0.0000 C   0  0
    5.0000   -7.4685    0.0000 Br  0  0
   10.9514   -6.5024    0.0000 C   0  0
    9.8409   -5.6395    0.0000 C   0  0
   11.1405   -5.1134    0.0000 C   0  0
    7.6302  -10.3119    0.0000 C   0  0
   10.3291   -5.0000    0.0000 C   0  0
    6.8360  -10.1675    0.0000 C   0  0
  2  1  1  0
  3  1  1  0
  4  2  1  0
  5  3  2  0
  6  1  1  0
  7  6  1  0
  8  5  1  0
  9  3  1  0
 10  2  2  0
 11  7  1  0
 12  1  1  0
 13  7  2  0
 14 19  2  0
 15  9  2  0
 16  4  1  0
 17 15  1  0
 18 15  1  0
 19 11  1  0
 20 11  2  0
 21 23  2  0
 22 16  1  0
 23 20  1  0
 24 22  1  0
  5  4  1  0
 17  8  2  0
 14 21  1  0
M  END
> <COMPOUND_ID>
DNDI1417871

$$$$

  SciTegic04051205032D

 26 28  0  0  0  0            999 V2000
    7.8677   -7.0458    0.0000 C   0  0
    7.1456   -7.4654    0.0000 C   0  0
    8.5863   -7.4482    0.0000 C   0  0
    9.2844   -7.0458    0.0000 C   0  0
    6.4304   -7.0458    0.0000 C   0  0
    7.8677   -6.2309    0.0000 C   0  0
    9.2844   -6.2309    0.0000 C   0  0
    8.5863   -5.8114    0.0000 C   0  0
    7.1388   -8.2872    0.0000 N   0  0
    6.4201   -8.7033    0.0000 C   0  0
    9.9927   -7.4482    0.0000 N   0  0
    6.4304   -6.2172    0.0000 C   0  0
    5.6980   -8.2872    0.0000 O   0  0
    8.5726   -8.2975    0.0000 O   0  0
    8.5863   -5.0000    0.0000 Cl  0  0
    7.1456   -5.8011    0.0000 Cl  0  0
    5.7118   -7.4482    0.0000 C   0  0
    9.9927   -5.8114    0.0000 C   0  0
    6.4201   -9.5285    0.0000 C   0  0
   10.7113   -7.0458    0.0000 C   0  0
    5.7118   -5.8114    0.0000 C   0  0
    5.6946   -9.9377    0.0000 C   0  0
   10.7113   -6.2309    0.0000 C   0  0
    5.0035   -7.0458    0.0000 C   0  0
    5.6774  -10.7870    0.0000 C   0  0
    5.0000   -6.2172    0.0000 C   0  0
  2  1  1  0
  3  1  2  0
  4  3  1  0
  5  2  1  0
  6  1  1  0
  7  8  1  0
  8  6  2  0
  9  2  1  0
 10  9  1  0
 11  4  2  0
 12  5  1  0
 13 10  2  0
 14  3  1  0
 15  8  1  0
 16 12  1  0
 17  5  2  0
 18  7  2  0
 19 10  1  0
 20 11  1  0
 21 12  2  0
 22 19  1  0
 23 18  1  0
 24 17  1  0
 25 22  1  0
 26 24  2  0
  4  7  1  0
 23 20  2  0
 21 26  1  0
M  END
> <COMPOUND_ID>
DNDI1417872

$$$$

  SciTegic04051205032D

 28 31  0  0  0  0            999 V2000
    7.6493   -6.8343    0.0000 C   0  0
    9.1395  -11.3510    0.0000 S   0  0
    8.4542   -6.8343    0.0000 C   0  0
    7.1663   -7.4875    0.0000 N   0  0
    9.6822   -7.5289    0.0000 C   0  0
   10.1652   -8.2050    0.0000 N   0  0
    7.1663   -6.1858    0.0000 N   0  0
    8.8543   -7.5289    0.0000 C   0  0
    8.9095   -6.0387    0.0000 C   0  0
    6.3983   -7.2391    0.0000 C   0  0
    6.3983   -6.4388    0.0000 C   0  0
    9.3740   -5.2475    0.0000 N   0  0
    9.3925  -10.5645    0.0000 C   0  0
    9.9122   -8.9869    0.0000 C   0  0
    9.9444  -11.5947    0.0000 O   0  0
    8.3300  -11.0842    0.0000 O   0  0
   10.9608   -7.9520    0.0000 C   0  0
   10.1652   -6.8804    0.0000 C   0  0
   10.9608   -7.1287    0.0000 C   0  0
    8.8957  -12.1099    0.0000 N   0  0
    8.8405   -9.9436    0.0000 C   0  0
   10.2019  -10.3851    0.0000 C   0  0
    9.0981   -9.1662    0.0000 C   0  0
   10.4641   -9.6078    0.0000 C   0  0
    5.6945   -7.6393    0.0000 C   0  0
    5.6945   -6.0249    0.0000 C   0  0
    5.0000   -6.4388    0.0000 C   0  0
    5.0000   -7.2391    0.0000 C   0  0
  2 13  1  0
  3  1  1  0
  4  1  2  0
  5  8  1  0
  6  5  1  0
  7  1  1  0
  8  3  2  0
  9  3  1  0
 10  4  1  0
 11  7  1  0
 12  9  3  0
 13 22  2  0
 14  6  1  0
 15  2  2  0
 16  2  2  0
 17  6  1  0
 18  5  2  0
 19 18  1  0
 20  2  1  0
 21 23  2  0
 22 24  1  0
 23 14  1  0
 24 14  2  0
 25 10  1  0
 26 11  1  0
 27 26  2  0
 28 25  2  0
 10 11  2  0
 28 27  1  0
 19 17  2  0
 13 21  1  0
M  END
> <COMPOUND_ID>
DNDI1417873

$$$$

  SciTegic04051205032D

 26 28  0  0  0  0            999 V2000
    6.9579   -7.4610    0.0000 S   0  0
    7.5440   -6.8748    0.0000 N   0  0
    8.3463   -7.0951    0.0000 C   0  0
    9.7306   -6.7335    0.0000 C   0  0
    9.9426   -7.5191    0.0000 C   0  0
    9.3647   -8.1053    0.0000 C   0  0
    8.9283   -6.5090    0.0000 C   0  0
    8.5666   -7.8932    0.0000 C   0  0
    7.5316   -8.0429    0.0000 O   0  0
    6.3760   -6.8831    0.0000 O   0  0
   10.3167   -6.1515    0.0000 S   0  0
    6.3760   -8.0346    0.0000 C   0  0
   11.7010   -5.7982    0.0000 C   0  0
   11.4890   -5.0000    0.0000 O   0  0
   11.1148   -6.3760    0.0000 C   0  0
   10.7407   -7.7311    0.0000 O   0  0
   12.4949   -6.0144    0.0000 O   0  0
    9.5809   -8.9034    0.0000 C   0  0
    7.9805   -8.4836    0.0000 C   0  0
    6.5880   -8.8410    0.0000 C   0  0
    5.5903   -7.8226    0.0000 C   0  0
    8.9948   -9.4895    0.0000 C   0  0
    8.1925   -9.2692    0.0000 C   0  0
    5.0000   -8.4170    0.0000 C   0  0
    6.0018   -9.4271    0.0000 C   0  0
    5.2120   -9.2027    0.0000 C   0  0
  2  1  1  0
  3  2  1  0
  4  7  2  0
  5  6  2  0
  6  8  1  0
  7  3  1  0
  8  3  2  0
  9  1  2  0
 10  1  2  0
 11  4  1  0
 12  1  1  0
 13 15  1  0
 14 13  2  0
 15 11  1  0
 16  5  1  0
 17 13  1  0
 18  6  1  0
 19  8  1  0
 20 12  1  0
 21 12  2  0
 22 23  1  0
 23 19  2  0
 24 21  1  0
 25 20  2  0
 26 24  2  0
 25 26  1  0
  5  4  1  0
 18 22  2  0
M  END
> <COMPOUND_ID>
DNDI1417874

$$$$

  SciTegic04051205032D

 27 29  0  0  0  0            999 V2000
    9.1087   -9.6080    0.0000 N   0  0
    8.4326   -9.1271    0.0000 N   0  0
    9.7730   -9.1056    0.0000 C   0  0
    5.8852   -5.7892    0.0000 S   0  0
    9.1123  -10.4341    0.0000 C   0  0
    8.6754   -8.3379    0.0000 C   0  0
    9.5016   -8.3307    0.0000 C   0  0
   10.5539   -9.3520    0.0000 C   0  0
    6.6994   -5.6976    0.0000 N   0  0
    8.4124  -10.8472    0.0000 C   0  0
    8.1826   -7.6819    0.0000 C   0  0
    6.0971   -6.5927    0.0000 O   0  0
    5.1650   -6.2035    0.0000 O   0  0
   10.8157  -10.1329    0.0000 O   0  0
    9.8396  -10.8341    0.0000 O   0  0
   11.2002   -8.8556    0.0000 C   0  0
   11.6800  -10.0829    0.0000 C   0  0
   11.8800   -9.3021    0.0000 C   0  0
    8.5124   -6.9177    0.0000 C   0  0
    7.3708   -7.7819    0.0000 C   0  0
    7.1993   -6.3535    0.0000 C   0  0
    5.6459   -5.0000    0.0000 C   0  0
    8.0207   -6.2606    0.0000 C   0  0
    6.8744   -7.1177    0.0000 C   0  0
    8.8254  -11.5614    0.0000 C   0  0
    7.6993  -11.2686    0.0000 C   0  0
    7.9957  -10.1449    0.0000 C   0  0
  2  1  1  0
  3  1  1  0
  4  9  1  0
  5  1  1  0
  6  2  2  0
  7  3  1  0
  8  3  1  0
  9 21  1  0
 10  5  1  0
 11  6  1  0
 12  4  2  0
 13  4  2  0
 14  8  1  0
 15  5  2  0
 16  8  2  0
 17 14  1  0
 18 16  1  0
 19 11  2  0
 20 11  1  0
 21 24  1  0
 22  4  1  0
 23 19  1  0
 24 20  2  0
 25 10  1  0
 26 10  1  0
 27 10  1  0
  6  7  1  0
 18 17  2  0
 21 23  2  0
M  END
> <COMPOUND_ID>
DNDI1417875

$$$$

  SciTegic04051205032D

 29 31  0  0  0  0            999 V2000
    7.1250   -7.4577    0.0000 N   0  0
    6.4139   -7.0585    0.0000 C   0  0
    7.1333   -8.2811    0.0000 C   0  0
    6.4139   -8.6969    0.0000 C   0  0
    5.7028   -8.2935    0.0000 C   0  0
    5.6986   -7.4702    0.0000 C   0  0
    6.4139  -11.1588    0.0000 C   0  0
    6.4139  -11.9946    0.0000 C   0  0
    6.4139   -6.2351    0.0000 N   0  0
    7.1333  -10.7471    0.0000 N   0  0
    7.1333  -12.4021    0.0000 C   0  0
    6.4139   -9.5203    0.0000 C   0  0
    7.1333   -9.9278    0.0000 C   0  0
    5.7028  -10.7471    0.0000 O   0  0
    7.8486   -8.6928    0.0000 C   0  0
    7.1375  -13.2297    0.0000 C   0  0
    7.8486   -9.5161    0.0000 C   0  0
    7.1375  -14.8848    0.0000 C   0  0
    6.4139  -13.6497    0.0000 C   0  0
    7.8486  -13.6414    0.0000 C   0  0
    7.8486  -14.4731    0.0000 C   0  0
    6.4139  -14.4773    0.0000 C   0  0
    7.1375  -15.7123    0.0000 O   0  0
    5.0000   -8.7052    0.0000 C   0  0
    7.1250   -5.8234    0.0000 C   0  0
    5.6986   -5.8234    0.0000 C   0  0
    6.4264  -16.1323    0.0000 C   0  0
    5.6986   -5.0000    0.0000 C   0  0
    7.1250   -5.0000    0.0000 C   0  0
  2  1  2  0
  3  1  1  0
  4  3  1  0
  5  4  1  0
  6  2  1  0
  7 10  1  0
  8  7  1  0
  9  2  1  0
 10 13  1  0
 11  8  2  0
 12  4  2  0
 13 17  2  0
 14  7  2  0
 15  3  2  0
 16 11  1  0
 17 15  1  0
 18 21  2  0
 19 16  1  0
 20 16  2  0
 21 20  1  0
 22 19  2  0
 23 18  1  0
 24  5  1  0
 25  9  1  0
 26  9  1  0
 27 23  1  0
 28 26  1  0
 29 25  1  0
  5  6  2  0
 13 12  1  0
 18 22  1  0
M  END
> <COMPOUND_ID>
DNDI1417876

$$$$

  SciTegic04051205032D

 29 31  0  0  0  0            999 V2000
    7.1348   -7.0621    0.0000 C   0  0
    7.1348   -8.7199    0.0000 N   0  0
    7.8532   -8.3127    0.0000 C   0  0
    7.8532   -7.4692    0.0000 C   0  0
    7.1348   -6.2244    0.0000 C   0  0
    6.4106   -7.4692    0.0000 C   0  0
    6.4106   -8.3127    0.0000 C   0  0
    7.8532   -5.8173    0.0000 N   0  0
    8.5744   -6.2244    0.0000 N   0  0
    8.5744   -8.7199    0.0000 C   0  0
    6.4106   -5.8173    0.0000 O   0  0
    9.2928   -8.3127    0.0000 C   0  0
    9.2928   -5.8173    0.0000 C   0  0
    9.9937   -8.7199    0.0000 C   0  0
   10.7121   -8.3127    0.0000 O   0  0
    5.7183   -7.0621    0.0000 C   0  0
    8.5512   -9.5343    0.0000 C   0  0
    5.7183   -8.7199    0.0000 C   0  0
    9.2724   -9.9472    0.0000 C   0  0
    9.9937   -9.5343    0.0000 C   0  0
    9.9937   -6.2244    0.0000 C   0  0
    9.2928   -5.0000    0.0000 C   0  0
   11.4334   -8.7199    0.0000 C   0  0
   12.1518   -8.3127    0.0000 C   0  0
   12.8498   -8.7199    0.0000 C   0  0
   10.7121   -5.8173    0.0000 C   0  0
    5.0000   -7.4692    0.0000 C   0  0
    5.0000   -8.3127    0.0000 C   0  0
   13.5711   -8.3127    0.0000 C   0  0
  2  3  1  0
  3  4  2  0
  4  1  1  0
  5  1  1  0
  6  1  2  0
  7  6  1  0
  8  5  1  0
  9  8  1  0
 10  3  1  0
 11  5  2  0
 12 10  1  0
 13  9  2  0
 14 12  2  0
 15 14  1  0
 16  6  1  0
 17 10  2  0
 18  7  1  0
 19 17  1  0
 20 19  2  0
 21 13  1  0
 22 13  1  0
 23 15  1  0
 24 23  1  0
 25 24  1  0
 26 21  1  0
 27 16  2  0
 28 27  1  0
 29 25  1  0
  2  7  2  0
 28 18  2  0
 20 14  1  0
M  END
> <COMPOUND_ID>
DNDI1417877

$$$$

  SciTegic04051205032D

 28 29  0  0  0  0            999 V2000
   10.6642   -6.8918    0.0000 C   0  0
    9.9778   -7.3159    0.0000 C   0  0
   13.5382   -6.0770    0.0000 N   0  0
   11.3785   -7.3159    0.0000 N   0  0
   13.5382   -6.8918    0.0000 C   0  0
   12.8239   -5.6622    0.0000 C   0  0
    9.2784   -6.9197    0.0000 N   0  0
   12.0873   -6.8918    0.0000 C   0  0
   12.0873   -6.0770    0.0000 C   0  0
   12.8239   -7.3159    0.0000 C   0  0
   10.6642   -6.0770    0.0000 O   0  0
   10.0057   -8.1586    0.0000 O   0  0
    8.5604   -7.3382    0.0000 C   0  0
    7.1373   -8.1865    0.0000 C   0  0
    8.5604   -8.1865    0.0000 C   0  0
    7.8516   -6.9476    0.0000 C   0  0
    7.8516   -8.6050    0.0000 C   0  0
    7.1373   -7.3382    0.0000 C   0  0
    6.4286   -8.6050    0.0000 O   0  0
   13.2982   -5.0000    0.0000 C   0  0
   14.3530   -6.8137    0.0000 C   0  0
   14.0125   -7.5503    0.0000 C   0  0
   12.1431   -5.1879    0.0000 C   0  0
    6.4286   -9.4253    0.0000 C   0  0
    5.7143   -9.8402    0.0000 C   0  0
    5.0000  -11.0828    0.0000 C   0  0
    5.7143  -10.6642    0.0000 C   0  0
    5.0000  -11.9031    0.0000 C   0  0
  2  1  1  0
  3  5  1  0
  4  1  1  0
  5 10  1  0
  6  9  1  0
  7  2  1  0
  8  4  1  0
  9  8  1  0
 10  8  1  0
 11  1  2  0
 12  2  2  0
 13  7  1  0
 14 18  2  0
 15 13  1  0
 16 13  2  0
 17 15  2  0
 18 16  1  0
 19 14  1  0
 20  6  1  0
 21  5  1  0
 22  5  1  0
 23  6  1  0
 24 19  1  0
 25 24  1  0
 26 27  1  0
 27 25  1  0
 28 26  1  0
  6  3  1  0
 17 14  1  0
M  END
> <COMPOUND_ID>
DNDI1417878

$$$$

  SciTegic04051205032D

 29 32  0  0  0  0            999 V2000
    7.2107  -11.3226    0.0000 N   0  0
    7.7058  -10.6453    0.0000 C   0  0
    7.2107   -9.9817    0.0000 C   0  0
    6.4233  -11.0682    0.0000 C   0  0
    6.4233  -10.2327    0.0000 C   0  0
    7.4720  -12.1064    0.0000 C   0  0
   10.6315   -6.3306    0.0000 N   0  0
    8.5171   -8.2421    0.0000 C   0  0
    7.4617   -9.1979    0.0000 C   0  0
    7.9601   -7.6301    0.0000 O   0  0
    9.3216   -8.0599    0.0000 N   0  0
    8.2662   -9.0225    0.0000 C   0  0
    7.0560  -12.8216    0.0000 C   0  0
    6.2205  -14.2311    0.0000 C   0  0
    6.2240  -12.8078    0.0000 C   0  0
    7.4617  -13.5263    0.0000 C   0  0
    9.5726   -7.2898    0.0000 C   0  0
    5.8114  -13.5195    0.0000 C   0  0
    7.0491  -14.2414    0.0000 C   0  0
   10.3909   -7.1144    0.0000 C   0  0
    5.7117  -11.4807    0.0000 C   0  0
    5.7117   -9.8202    0.0000 C   0  0
   11.4188   -6.0830    0.0000 C   0  0
   10.1537   -5.6705    0.0000 C   0  0
    5.7976  -14.9428    0.0000 C   0  0
    5.0000  -11.0682    0.0000 C   0  0
    5.0000  -10.2430    0.0000 C   0  0
   11.4188   -5.2579    0.0000 C   0  0
   10.6418   -5.0000    0.0000 C   0  0
  2  1  1  0
  3  2  2  0
  4  1  1  0
  5  4  1  0
  6  1  1  0
  7 20  1  0
  8 12  1  0
  9  3  1  0
 10  8  2  0
 11  8  1  0
 12  9  1  0
 13  6  1  0
 14 19  1  0
 15 13  2  0
 16 13  1  0
 17 11  1  0
 18 15  1  0
 19 16  2  0
 20 17  1  0
 21  4  2  0
 22  5  2  0
 23  7  1  0
 24  7  1  0
 25 14  1  0
 26 21  1  0
 27 26  2  0
 28 23  1  0
 29 24  1  0
  3  5  1  0
 18 14  2  0
 22 27  1  0
 29 28  1  0
M  END
> <COMPOUND_ID>
DNDI1417879

$$$$

  SciTegic04051205032D

 28 29  0  0  0  0            999 V2000
    7.8527   -7.4849    0.0000 C   0  0
    8.5538   -7.8905    0.0000 C   0  0
    7.1447   -7.8905    0.0000 C   0  0
    7.8527   -6.6669    0.0000 C   0  0
   10.0421   -7.8390    0.0000 N   0  0
   10.7535   -7.4334    0.0000 C   0  0
    6.4401   -7.4746    0.0000 C   0  0
   11.4547   -7.8390    0.0000 C   0  0
    7.1550   -6.2544    0.0000 C   0  0
    6.4435   -6.6635    0.0000 C   0  0
    9.3306   -7.4368    0.0000 O   0  0
   12.1558   -7.4265    0.0000 C   0  0
   12.8776   -7.8286    0.0000 C   0  0
   12.8776   -8.6466    0.0000 C   0  0
    8.5470   -8.7806    0.0000 O   0  0
   11.4650   -8.6569    0.0000 C   0  0
   12.1730   -9.0625    0.0000 C   0  0
   10.7501   -6.6153    0.0000 N   0  0
    7.1447   -8.7085    0.0000 O   0  0
    7.1618   -5.4124    0.0000 O   0  0
    5.7218   -6.2338    0.0000 O   0  0
   13.5787   -7.4231    0.0000 O   0  0
   13.5890   -9.0522    0.0000 O   0  0
    6.4195   -9.1209    0.0000 C   0  0
    6.4435   -5.0000    0.0000 C   0  0
    5.0000   -6.6463    0.0000 C   0  0
   13.5787   -6.6050    0.0000 C   0  0
   14.2970   -8.6466    0.0000 C   0  0
  2  1  1  0
  3  1  1  0
  4  1  2  0
  5 11  1  0
  6  5  2  0
  7  3  2  0
  8  6  1  0
  9  4  1  0
 10  9  2  0
 11  2  1  0
 12  8  2  0
 13 12  1  0
 14 17  1  0
 15  2  2  0
 16  8  1  0
 17 16  2  0
 18  6  1  0
 19  3  1  0
 20  9  1  0
 21 10  1  0
 22 13  1  0
 23 14  1  0
 24 19  1  0
 25 20  1  0
 26 21  1  0
 27 22  1  0
 28 23  1  0
  7 10  1  0
 13 14  2  0
M  END
> <COMPOUND_ID>
DNDI1417880

$$$$

  SciTegic04051205032D

 27 29  0  0  0  0            999 V2000
    9.1502   -8.1928    0.0000 S   0  0
    5.5132   -7.9909    0.0000 C   0  0
    6.2865   -7.7045    0.0000 O   0  0
    6.2492   -6.8855    0.0000 C   0  0
    5.4634   -6.6711    0.0000 N   0  0
    5.3763   -8.7919    0.0000 N   0  0
    5.0000   -7.3559    0.0000 N   0  0
    6.0126   -9.3189    0.0000 C   0  0
    8.3644   -8.4709    0.0000 C   0  0
    9.9470   -7.9079    0.0000 N   0  0
    8.8638   -7.4181    0.0000 O   0  0
    9.4393   -8.9703    0.0000 O   0  0
    6.9284   -6.4180    0.0000 C   0  0
    6.8039   -9.0326    0.0000 C   0  0
    5.8798  -10.1199    0.0000 O   0  0
    8.2150   -9.2691    0.0000 C   0  0
    7.7142   -7.9452    0.0000 C   0  0
    7.4403   -9.5582    0.0000 C   0  0
    6.9409   -8.2343    0.0000 C   0  0
    7.6893   -6.7610    0.0000 C   0  0
    6.8537   -5.5962    0.0000 C   0  0
    8.2980   -5.4717    0.0000 C   0  0
    7.5399   -5.1342    0.0000 C   0  0
    8.3727   -6.2852    0.0000 C   0  0
    8.9634   -5.0000    0.0000 F   0  0
   10.0881   -7.0972    0.0000 C   0  0
   10.5889   -8.4335    0.0000 C   0  0
  2  6  1  0
  3  2  1  0
  4  3  1  0
  5  7  1  0
  6  8  1  0
  7  2  2  0
  8 14  1  0
  9  1  1  0
 10  1  1  0
 11  1  2  0
 12  1  2  0
 13  4  1  0
 14 19  1  0
 15  8  2  0
 16  9  2  0
 17  9  1  0
 18 16  1  0
 19 17  2  0
 20 13  2  0
 21 13  1  0
 22 23  1  0
 23 21  2  0
 24 20  1  0
 25 22  1  0
 26 10  1  0
 27 10  1  0
 18 14  2  0
  5  4  2  0
 22 24  2  0
M  END
> <COMPOUND_ID>
DNDI1417881

$$$$

  SciTegic04051205032D

 28 30  0  0  0  0            999 V2000
   11.2073   -7.1894    0.0000 C   0  0
   11.6094   -6.4883    0.0000 C   0  0
   10.3893   -7.1894    0.0000 N   0  0
    8.7085   -7.1894    0.0000 N   0  0
    7.8803   -7.1894    0.0000 C   0  0
    7.4575   -6.4676    0.0000 C   0  0
    6.2029   -7.1894    0.0000 C   0  0
    6.6292   -6.4676    0.0000 C   0  0
    7.4575   -7.9112    0.0000 C   0  0
   12.4172   -6.4883    0.0000 C   0  0
   11.2176   -5.8009    0.0000 C   0  0
   11.6094   -7.8906    0.0000 O   0  0
    5.4193   -7.1894    0.0000 C   0  0
    9.9597   -6.4676    0.0000 C   0  0
    9.9597   -7.9112    0.0000 C   0  0
    9.1313   -6.4676    0.0000 C   0  0
    9.1313   -7.9112    0.0000 C   0  0
    6.6292   -7.9112    0.0000 C   0  0
    5.0000   -7.9009    0.0000 O   0  0
    7.8562   -5.7527    0.0000 F   0  0
   12.7987   -7.2100    0.0000 F   0  0
   10.3893   -5.8009    0.0000 F   0  0
   12.4172   -5.0859    0.0000 C   0  0
   11.6094   -5.0859    0.0000 C   0  0
   12.8536   -5.8009    0.0000 C   0  0
    5.0000   -6.4023    0.0000 C   0  0
    5.4502   -5.7321    0.0000 C   0  0
    5.0687   -5.0000    0.0000 C   0  0
  2  1  1  0
  3  1  1  0
  4 17  1  0
  5  4  1  0
  6  5  1  0
  7 18  2  0
  8  6  2  0
  9  5  2  0
 10  2  1  0
 11  2  2  0
 12  1  2  0
 13  7  1  0
 14  3  1  0
 15  3  1  0
 16 14  1  0
 17 15  1  0
 18  9  1  0
 19 13  2  0
 20  6  1  0
 21 10  1  0
 22 11  1  0
 23 24  2  0
 24 11  1  0
 25 10  2  0
 26 13  1  0
 27 26  1  0
 28 27  1  0
  4 16  1  0
 23 25  1  0
  8  7  1  0
M  END
> <COMPOUND_ID>
DNDI1417882

$$$$

  SciTegic04051205032D

 29 32  0  0  0  0            999 V2000
    5.7118  -10.4539    0.0000 N   0  0
    9.8486   -8.2324    0.0000 N   0  0
    6.3721   -9.9690    0.0000 C   0  0
    5.2992   -9.1850    0.0000 N   0  0
    5.0413   -9.9690    0.0000 N   0  0
   10.3954   -8.8480    0.0000 C   0  0
    6.1245   -9.1850    0.0000 N   0  0
    9.1746   -9.3810    0.0000 C   0  0
    9.0852   -8.5626    0.0000 C   0  0
   10.0240   -7.4243    0.0000 C   0  0
    8.5591   -9.9346    0.0000 C   0  0
    9.9827   -9.5564    0.0000 C   0  0
    7.7751   -9.6699    0.0000 N   0  0
   10.8080   -7.1596    0.0000 C   0  0
    7.1629  -10.2269    0.0000 C   0  0
   10.9800   -6.3617    0.0000 C   0  0
    5.7118  -11.2757    0.0000 C   0  0
   11.2207   -8.7483    0.0000 O   0  0
    9.4119   -6.8672    0.0000 C   0  0
   10.3713   -5.8013    0.0000 C   0  0
    8.7310  -10.7324    0.0000 O   0  0
    9.5701   -6.0660    0.0000 C   0  0
   11.7571   -6.0970    0.0000 C   0  0
    5.0000  -11.6884    0.0000 C   0  0
    6.4236  -11.6919    0.0000 C   0  0
   10.5398   -5.0000    0.0000 C   0  0
    6.4236  -12.5172    0.0000 C   0  0
    5.0000  -12.5137    0.0000 C   0  0
    5.7118  -12.9298    0.0000 C   0  0
  2  9  1  0
  3  1  1  0
  4  5  2  0
  5  1  1  0
  6 12  1  0
  7  3  2  0
  8 11  1  0
  9  8  1  0
 10  2  1  0
 11 13  1  0
 12  8  1  0
 13 15  1  0
 14 10  2  0
 15  3  1  0
 16 14  1  0
 17  1  1  0
 18  6  2  0
 19 10  1  0
 20 22  1  0
 21 11  2  0
 22 19  2  0
 23 16  1  0
 24 17  2  0
 25 17  1  0
 26 20  1  0
 27 25  2  0
 28 24  1  0
 29 27  1  0
  7  4  1  0
 28 29  2  0
  6  2  1  0
 20 16  2  0
M  END
> <COMPOUND_ID>
DNDI1417883

$$$$

  SciTegic04051205032D

 27 29  0  0  0  0            999 V2000
    7.9841   -5.8979    0.0000 N   0  0
    8.2467   -6.6859    0.0000 C   0  0
    7.5755   -7.1695    0.0000 S   0  0
    7.1502   -5.8979    0.0000 C   0  0
    6.8959   -6.6984    0.0000 C   0  0
    9.0139   -6.9361    0.0000 N   0  0
   10.4273   -6.6609    0.0000 C   0  0
    6.1121   -6.9611    0.0000 C   0  0
    9.6518   -6.3982    0.0000 C   0  0
   11.0277   -6.0980    0.0000 C   0  0
    6.4248   -9.1333    0.0000 C   0  0
    5.9620   -7.7699    0.0000 C   0  0
    6.6457   -5.2475    0.0000 O   0  0
    5.6451   -9.4126    0.0000 C   0  0
    6.5832   -8.3202    0.0000 C   0  0
   10.8484   -5.2850    0.0000 O   0  0
    5.0239   -8.8623    0.0000 C   0  0
    5.1740   -8.0368    0.0000 C   0  0
   11.7782   -6.3857    0.0000 O   0  0
    9.2141   -7.7616    0.0000 C   0  0
    7.0460   -9.6628    0.0000 O   0  0
    5.4950  -10.2214    0.0000 O   0  0
   10.6024   -7.4697    0.0000 C   0  0
    9.9645   -8.0117    0.0000 C   0  0
   12.4161   -5.8812    0.0000 C   0  0
    6.8959  -10.4633    0.0000 C   0  0
   13.1791   -6.1689    0.0000 C   0  0
  2  1  2  0
  3  2  1  0
  4  1  1  0
  5  4  1  0
  6  2  1  0
  7  9  1  0
  8  5  2  0
  9  6  1  0
 10  7  1  0
 11 15  2  0
 12  8  1  0
 13  4  2  0
 14 17  2  0
 15 12  1  0
 16 10  2  0
 17 18  1  0
 18 12  2  0
 19 10  1  0
 20  6  1  0
 21 11  1  0
 22 14  1  0
 23 24  1  0
 24 20  1  0
 25 19  1  0
 26 21  1  0
 27 25  1  0
  3  5  1  0
 23  7  1  0
 11 14  1  0
M  END
> <COMPOUND_ID>
DNDI1417884

$$$$

  SciTegic04051205032D

 28 31  0  0  0  0            999 V2000
    7.0684   -6.0607    0.0000 C   0  0
    7.8690   -6.2442    0.0000 N   0  0
    6.4304   -6.5737    0.0000 C   0  0
    8.2318   -6.9865    0.0000 C   0  0
    7.0684   -7.9122    0.0000 S   0  0
    7.8690   -7.7246    0.0000 C   0  0
    6.4304   -7.3993    0.0000 C   0  0
    9.0575   -6.9239    0.0000 C   0  0
   10.3460   -7.5495    0.0000 C   0  0
    9.5204   -7.6120    0.0000 C   0  0
   10.8089   -8.2375    0.0000 N   0  0
   12.2101   -8.2625    0.0000 C   0  0
    6.8807   -5.2476    0.0000 O   0  0
   13.0107   -8.4835    0.0000 O   0  0
    8.3402   -8.4127    0.0000 C   0  0
   10.7046   -6.8114    0.0000 O   0  0
   12.2309   -7.4118    0.0000 C   0  0
   13.4944   -7.8205    0.0000 C   0  0
    9.1659   -8.3584    0.0000 C   0  0
   13.0107   -7.1574    0.0000 C   0  0
    8.3819   -5.5979    0.0000 C   0  0
    9.2034   -5.7188    0.0000 C   0  0
   11.5220   -8.6461    0.0000 C   0  0
    9.7163   -5.0724    0.0000 C   0  0
    5.7173   -6.1608    0.0000 C   0  0
    5.7173   -7.8122    0.0000 C   0  0
    5.0000   -6.5737    0.0000 C   0  0
    5.0000   -7.3993    0.0000 C   0  0
  2  1  1  0
  3  1  1  0
  4  2  1  0
  5  7  1  0
  6  4  2  0
  7  3  1  0
  8  4  1  0
  9 10  1  0
 10  8  2  0
 11  9  1  0
 12 23  1  0
 13  1  2  0
 14 12  1  0
 15  6  1  0
 16  9  2  0
 17 12  2  0
 18 14  1  0
 19 10  1  0
 20 17  1  0
 21  2  1  0
 22 21  1  0
 23 11  1  0
 24 22  2  0
 25  3  2  0
 26  7  2  0
 27 25  1  0
 28 27  2  0
  5  6  1  0
 28 26  1  0
 15 19  2  0
 18 20  2  0
M  END
> <COMPOUND_ID>
DNDI1417885

$$$$

  SciTegic04051205032D

 28 31  0  0  0  0            999 V2000
    8.5723   -9.9649    0.0000 C   0  0
    8.5723  -10.7879    0.0000 N   0  0
    7.8577   -9.5624    0.0000 N   0  0
    9.2821   -9.5624    0.0000 N   0  0
    7.8577   -8.7395    0.0000 C   0  0
    7.9708  -11.3259    0.0000 N   0  0
    8.5723   -8.3371    0.0000 N   0  0
    9.2821  -11.1903    0.0000 C   0  0
    9.2821   -8.7395    0.0000 C   0  0
    9.1058  -11.9997    0.0000 C   0  0
    8.3009  -12.0630    0.0000 C   0  0
   10.7653   -6.2752    0.0000 C   0  0
    7.1433   -8.3371    0.0000 N   0  0
   10.0192   -7.5276    0.0000 N   0  0
   10.1141   -5.7958    0.0000 S   0  0
   10.7563   -7.1207    0.0000 C   0  0
   10.0192   -8.3371    0.0000 N   0  0
   10.3629   -5.0000    0.0000 C   0  0
   11.4526   -5.7822    0.0000 C   0  0
   11.1948   -5.0000    0.0000 C   0  0
    6.4334   -8.7666    0.0000 C   0  0
   10.0689  -10.8738    0.0000 C   0  0
    7.9030  -12.8001    0.0000 C   0  0
    5.7144   -8.3371    0.0000 C   0  0
    6.4334   -9.5851    0.0000 C   0  0
    5.7144   -9.9875    0.0000 C   0  0
    5.0000   -8.7666    0.0000 C   0  0
    5.0000   -9.5851    0.0000 C   0  0
  2  1  1  0
  3  1  2  0
  4  1  1  0
  5  3  1  0
  6  2  1  0
  7  9  1  0
  8  2  1  0
  9  4  2  0
 10  8  2  0
 11  6  2  0
 12 16  1  0
 13  5  1  0
 14 17  1  0
 15 12  1  0
 16 14  2  0
 17  9  1  0
 18 15  1  0
 19 12  2  0
 20 19  1  0
 21 13  1  0
 22  8  1  0
 23 11  1  0
 24 21  2  0
 25 21  1  0
 26 25  2  0
 27 24  1  0
 28 26  1  0
  7  5  2  0
 11 10  1  0
 28 27  2  0
 18 20  2  0
M  END
> <COMPOUND_ID>
DNDI1417886

$$$$

  SciTegic04051205032D

 29 32  0  0  0  0            999 V2000
    7.1320   -7.4615    0.0000 C   0  0
    7.8705   -7.0610    0.0000 C   0  0
    7.1320   -8.2918    0.0000 N   0  0
    8.5923   -7.4741    0.0000 C   0  0
    6.4186   -7.0527    0.0000 C   0  0
    6.4061   -8.7049    0.0000 C   0  0
    9.3057   -7.0610    0.0000 C   0  0
    7.8705   -6.2391    0.0000 C   0  0
   10.0109   -7.4741    0.0000 N   0  0
    6.4186   -6.2224    0.0000 C   0  0
    5.6884   -8.2918    0.0000 O   0  0
    9.3057   -6.2391    0.0000 C   0  0
    8.5840   -5.8386    0.0000 C   0  0
    6.4061   -9.5435    0.0000 C   0  0
    8.5840   -8.2918    0.0000 O   0  0
    7.1403   -5.8219    0.0000 O   0  0
    5.7009   -7.4615    0.0000 C   0  0
   10.7368   -7.0610    0.0000 C   0  0
    5.7051   -5.8219    0.0000 C   0  0
    7.1320   -9.9566    0.0000 C   0  0
    5.7009   -9.9440    0.0000 C   0  0
   10.0109   -5.8386    0.0000 C   0  0
    7.1403   -5.0000    0.0000 C   0  0
    5.0000   -7.0402    0.0000 C   0  0
   10.7368   -6.2391    0.0000 C   0  0
    5.0000   -6.2224    0.0000 C   0  0
    7.1195  -10.7827    0.0000 C   0  0
    5.6884  -10.7784    0.0000 C   0  0
    6.4061  -11.1957    0.0000 C   0  0
  2  1  1  0
  3  1  1  0
  4  2  1  0
  5  1  1  0
  6  3  1  0
  7  4  2  0
  8  2  2  0
  9  7  1  0
 10  5  1  0
 11  6  2  0
 12 13  2  0
 13  8  1  0
 14  6  1  0
 15  4  1  0
 16 10  1  0
 17  5  2  0
 18  9  2  0
 19 10  2  0
 20 14  1  0
 21 14  1  0
 22 12  1  0
 23 16  1  0
 24 17  1  0
 25 22  2  0
 26 24  2  0
 27 20  1  0
 28 21  1  0
 29 28  1  0
 26 19  1  0
  7 12  1  0
 27 29  1  0
 18 25  1  0
M  END
> <COMPOUND_ID>
DNDI1417887

$$$$

  SciTegic04051205032D

 29 32  0  0  0  0            999 V2000
    6.7139   -8.5836    0.0000 C   0  0
    7.0455   -9.3307    0.0000 N   0  0
    5.9148   -8.6675    0.0000 C   0  0
    6.4382   -9.8780    0.0000 C   0  0
    5.7350   -9.4785    0.0000 C   0  0
    7.1972   -7.8445    0.0000 N   0  0
   11.7157   -7.1214    0.0000 C   0  0
   10.8488   -7.1214    0.0000 N   0  0
    7.9604   -7.8445    0.0000 C   0  0
    9.1988   -7.1494    0.0000 N   0  0
   12.0992   -7.8246    0.0000 O   0  0
   10.4373   -6.4303    0.0000 C   0  0
   10.4373   -7.8685    0.0000 C   0  0
   12.0833   -6.4303    0.0000 C   0  0
    8.3598   -7.1494    0.0000 C   0  0
    8.3598   -8.5836    0.0000 O   0  0
    9.6183   -7.8685    0.0000 C   0  0
    9.6183   -6.4303    0.0000 C   0  0
    7.8724   -9.4905    0.0000 C   0  0
    5.3515   -8.0603    0.0000 C   0  0
    6.4382  -10.7170    0.0000 C   0  0
    5.0080   -9.8660    0.0000 C   0  0
   11.6838   -5.7191    0.0000 C   0  0
   12.9223   -6.4303    0.0000 C   0  0
    5.7350  -11.1165    0.0000 C   0  0
    5.0000  -10.7010    0.0000 C   0  0
   12.0833   -5.0000    0.0000 C   0  0
   13.3298   -5.7191    0.0000 C   0  0
   12.9223   -5.0000    0.0000 C   0  0
  2  1  1  0
  3  1  2  0
  4  2  1  0
  5  3  1  0
  6  1  1  0
  7  8  1  0
  8 12  1  0
  9  6  1  0
 10 15  1  0
 11  7  2  0
 12 18  1  0
 13 17  1  0
 14  7  1  0
 15  9  1  0
 16  9  2  0
 17 10  1  0
 18 10  1  0
 19  2  1  0
 20  3  1  0
 21  4  1  0
 22  5  1  0
 23 14  2  0
 24 14  1  0
 25 21  2  0
 26 22  2  0
 27 23  1  0
 28 24  2  0
 29 28  1  0
  4  5  2  0
 25 26  1  0
  8 13  1  0
 29 27  2  0
M  END
> <COMPOUND_ID>
DNDI1417888

$$$$

  SciTegic04051205032D

 28 31  0  0  0  0            999 V2000
    7.2937   -6.7303    0.0000 C   0  0
    8.0091   -6.3866    0.0000 C   0  0
    6.5545   -6.4186    0.0000 C   0  0
    7.6574   -5.0000    0.0000 S   0  0
    7.2697   -7.7573    0.0000 N   0  0
    8.1769   -5.6034    0.0000 C   0  0
    6.3507   -5.6354    0.0000 C   0  0
    6.8462   -5.0000    0.0000 C   0  0
    8.1010   -8.2208    0.0000 C   0  0
   12.3728   -8.8842    0.0000 N   0  0
    9.5076   -9.0201    0.0000 C   0  0
    8.7643   -7.8492    0.0000 C   0  0
    8.1010   -9.0360    0.0000 C   0  0
    8.5965   -6.9222    0.0000 C   0  0
    9.4916   -8.2448    0.0000 C   0  0
    8.7843   -9.4237    0.0000 C   0  0
   10.2629   -9.3518    0.0000 O   0  0
    5.9750   -6.9821    0.0000 C   0  0
   10.9702   -8.9442    0.0000 C   0  0
   11.6176   -9.3358    0.0000 C   0  0
    8.9442   -5.3357    0.0000 C   0  0
    5.5794   -5.4356    0.0000 C   0  0
   12.3888   -7.9532    0.0000 C   0  0
   13.3319   -8.8842    0.0000 C   0  0
    9.3638   -6.6824    0.0000 C   0  0
    5.2278   -6.7463    0.0000 C   0  0
    9.5316   -5.8751    0.0000 C   0  0
    5.0000   -5.9830    0.0000 C   0  0
  2  1  1  0
  3  1  1  0
  4  6  1  0
  5  1  1  0
  6  2  1  0
  7  3  2  0
  8  7  1  0
  9  5  1  0
 10 20  1  0
 11 16  2  0
 12  9  1  0
 13  9  2  0
 14  2  2  0
 15 12  2  0
 16 13  1  0
 17 11  1  0
 18  3  1  0
 19 17  1  0
 20 19  1  0
 21  6  2  0
 22  7  1  0
 23 10  1  0
 24 10  1  0
 25 14  1  0
 26 18  2  0
 27 25  2  0
 28 26  1  0
  4  8  1  0
 11 15  1  0
 27 21  1  0
 28 22  2  0
M  END
> <COMPOUND_ID>
DNDI1417889

$$$$

  SciTegic04051205032D

 25 28  0  0  0  0            999 V2000
   10.5992   -7.3618    0.0000 C   0  0
    7.2614   -6.2532    0.0000 C   0  0
    8.5146   -6.6750    0.0000 C   0  0
    7.2614   -7.0847    0.0000 C   0  0
   11.1455   -7.9764    0.0000 S   0  0
   11.0130   -6.6589    0.0000 C   0  0
    8.0487   -7.3257    0.0000 N   0  0
    9.7598   -7.3819    0.0000 C   0  0
    9.3501   -6.6750    0.0000 N   0  0
    8.0487   -6.0002    0.0000 S   0  0
   11.8203   -6.8316    0.0000 C   0  0
    6.5504   -5.8315    0.0000 C   0  0
   11.9006   -7.6350    0.0000 C   0  0
    6.5504   -7.4944    0.0000 C   0  0
    5.8315   -7.1047    0.0000 C   0  0
    5.8315   -6.2532    0.0000 C   0  0
    9.3501   -8.0969    0.0000 O   0  0
    6.5504   -5.0000    0.0000 O   0  0
   10.6635   -5.8877    0.0000 Cl  0  0
   12.4951   -6.3697    0.0000 C   0  0
   12.6518   -8.0005    0.0000 C   0  0
    5.0000   -7.1047    0.0000 C   0  0
    6.0484   -7.8800    0.0000 C   0  0
   13.2502   -6.7191    0.0000 C   0  0
   13.3266   -7.5185    0.0000 C   0  0
  2 10  1  0
  3  9  1  0
  4  7  1  0
  5  1  1  0
  6  1  2  0
  7  3  2  0
  8  1  1  0
  9  8  1  0
 10  3  1  0
 11  6  1  0
 12  2  1  0
 13  5  1  0
 14  4  1  0
 15 14  1  0
 16 12  1  0
 17  8  2  0
 18 12  2  0
 19  6  1  0
 20 11  1  0
 21 13  1  0
 22 15  1  0
 23 15  1  0
 24 20  2  0
 25 21  2  0
 13 11  2  0
 24 25  1  0
  2  4  2  0
 16 15  1  0
M  END
> <COMPOUND_ID>
DNDI1417890

$$$$

  SciTegic04051205032D

 24 26  0  0  0  0            999 V2000
   11.2712   -6.5987    0.0000 N   0  0
   11.7526   -5.9317    0.0000 C   0  0
   10.4873   -6.3478    0.0000 C   0  0
   10.4873   -5.5191    0.0000 N   0  0
   12.5742   -5.9317    0.0000 C   0  0
   11.2712   -5.2716    0.0000 O   0  0
   13.0452   -5.2647    0.0000 O   0  0
    7.0801   -7.9396    0.0000 C   0  0
   13.8567   -5.5157    0.0000 C   0  0
   13.0900   -6.6125    0.0000 C   0  0
   13.8635   -6.3408    0.0000 C   0  0
    9.8238   -6.8291    0.0000 C   0  0
    7.8296   -8.2731    0.0000 N   0  0
    6.4165   -8.4243    0.0000 N   0  0
    6.9941   -7.1247    0.0000 O   0  0
    9.9097   -7.6404    0.0000 C   0  0
    9.0742   -6.4922    0.0000 C   0  0
   14.5340   -5.0000    0.0000 Br  0  0
    8.4966   -7.7918    0.0000 C   0  0
    8.4072   -6.9735    0.0000 C   0  0
    9.2462   -8.1287    0.0000 C   0  0
    5.6671   -8.0909    0.0000 C   0  0
    5.0000   -8.5722    0.0000 C   0  0
    5.5776   -7.2726    0.0000 C   0  0
  2  1  2  0
  3  1  1  0
  4  3  2  0
  5  2  1  0
  6  2  1  0
  7  5  1  0
  8 13  1  0
  9  7  1  0
 10  5  2  0
 11 10  1  0
 12  3  1  0
 13 19  1  0
 14  8  1  0
 15  8  2  0
 16 12  2  0
 17 12  1  0
 18  9  1  0
 19 20  1  0
 20 17  2  0
 21 16  1  0
 22 14  1  0
 23 22  1  0
 24 22  1  0
  4  6  1  0
 21 19  2  0
  9 11  2  0
M  END
> <COMPOUND_ID>
DNDI1417891

$$$$

  SciTegic04051205032D

 21 22  0  0  0  0            999 V2000
    9.6144   -5.8303    0.0000 S   0  0
    6.2877   -7.2704    0.0000 C   0  0
    8.7577   -5.8303    0.0000 N   0  0
    5.8829   -8.0008    0.0000 S   0  0
    7.1180   -7.2704    0.0000 N   0  0
    5.7306   -6.6606    0.0000 N   0  0
    8.3531   -6.5609    0.0000 C   0  0
    7.5226   -6.5609    0.0000 C   0  0
    5.0000   -7.0181    0.0000 N   0  0
   10.4500   -5.8303    0.0000 C   0  0
    5.0737   -7.8222    0.0000 C   0  0
    9.6144   -5.0000    0.0000 O   0  0
    9.6144   -6.6606    0.0000 O   0  0
    7.1180   -5.8566    0.0000 O   0  0
   10.8547   -6.5398    0.0000 C   0  0
   10.8547   -5.1261    0.0000 C   0  0
   12.0898   -5.8303    0.0000 C   0  0
   11.6850   -6.5398    0.0000 C   0  0
   11.6850   -5.1261    0.0000 C   0  0
   12.9201   -5.8566    0.0000 Br  0  0
    8.3531   -5.1261    0.0000 C   0  0
  2  5  1  0
  3  1  1  0
  4  2  1  0
  5  8  1  0
  6  2  2  0
  7  3  1  0
  8  7  1  0
  9  6  1  0
 10  1  1  0
 11  4  1  0
 12  1  2  0
 13  1  2  0
 14  8  2  0
 15 10  1  0
 16 10  2  0
 17 19  2  0
 18 15  2  0
 19 16  1  0
 20 17  1  0
 21  3  1  0
 17 18  1  0
 11  9  2  0
M  END
> <COMPOUND_ID>
DNDI1417892

$$$$

  SciTegic04051205032D

 28 30  0  0  0  0            999 V2000
    5.9634   -6.6410    0.0000 C   0  0
    6.6958   -6.9851    0.0000 N   0  0
    5.3989   -7.2412    0.0000 N   0  0
    5.8312   -5.8396    0.0000 C   0  0
    6.5993   -7.7961    0.0000 C   0  0
    5.7955   -7.9640    0.0000 C   0  0
    7.4389   -6.5958    0.0000 C   0  0
    8.1510   -7.0209    0.0000 C   0  0
   11.7176   -8.2558    0.0000 C   0  0
    8.8654   -6.6053    0.0000 N   0  0
   11.0018   -7.8676    0.0000 C   0  0
    8.1510   -7.8676    0.0000 O   0  0
   11.7176   -9.0680    0.0000 O   0  0
    5.6811   -5.0000    0.0000 F   0  0
    5.0000   -5.9622    0.0000 F   0  0
    6.6529   -5.6895    0.0000 F   0  0
   10.2778   -8.2820    0.0000 C   0  0
   11.0018   -7.0459    0.0000 C   0  0
    9.5728   -7.0376    0.0000 C   0  0
   12.4237   -7.8414    0.0000 O   0  0
    9.5728   -7.8497    0.0000 C   0  0
   10.2957   -6.6231    0.0000 C   0  0
    7.1459   -8.4142    0.0000 C   0  0
    5.5311   -8.7500    0.0000 C   0  0
   13.1287   -8.2391    0.0000 C   0  0
    6.8815   -9.1918    0.0000 C   0  0
    6.0599   -9.3597    0.0000 C   0  0
   13.8360   -7.8319    0.0000 C   0  0
  2  1  1  0
  3  1  2  0
  4  1  1  0
  5  2  1  0
  6  3  1  0
  7  2  1  0
  8  7  1  0
  9 11  1  0
 10  8  1  0
 11 18  1  0
 12  8  2  0
 13  9  2  0
 14  4  1  0
 15  4  1  0
 16  4  1  0
 17 21  1  0
 18 22  2  0
 19 10  1  0
 20  9  1  0
 21 19  2  0
 22 19  1  0
 23  5  1  0
 24  6  1  0
 25 20  1  0
 26 23  2  0
 27 24  2  0
 28 25  1  0
  5  6  2  0
 26 27  1  0
 11 17  2  0
M  END
> <COMPOUND_ID>
DNDI1417893

$$$$

  SciTegic04051205032D

 29 32  0  0  0  0            999 V2000
    7.5129   -8.2095    0.0000 C   0  0
    7.4555   -9.0383    0.0000 N   0  0
    8.2535   -7.7863    0.0000 C   0  0
   10.9471   -7.4027    0.0000 C   0  0
    6.7722   -7.8744    0.0000 N   0  0
   11.7715   -7.3454    0.0000 N   0  0
   10.4754   -8.0640    0.0000 O   0  0
   13.4203   -7.2176    0.0000 N   0  0
   14.2315   -7.1647    0.0000 C   0  0
    8.9545   -8.2095    0.0000 C   0  0
    9.6774   -7.8083    0.0000 C   0  0
   10.5019   -6.7502    0.0000 C   0  0
    6.6488   -9.2014    0.0000 C   0  0
    8.2535   -6.9618    0.0000 C   0  0
    6.2255   -8.5092    0.0000 C   0  0
    8.2535   -6.1331    0.0000 N   0  0
    9.6951   -6.9795    0.0000 C   0  0
   12.1286   -6.6048    0.0000 C   0  0
   12.2344   -8.0199    0.0000 C   0  0
   12.9486   -6.5386    0.0000 C   0  0
   13.0632   -7.9582    0.0000 C   0  0
   14.7208   -7.8260    0.0000 O   0  0
   14.5489   -6.4240    0.0000 O   0  0
    6.2432   -9.9420    0.0000 C   0  0
    5.3968   -8.5092    0.0000 C   0  0
   14.0728   -5.6966    0.0000 C   0  0
   14.4166   -5.0000    0.0000 C   0  0
    5.4232   -9.9685    0.0000 C   0  0
    5.0000   -9.2014    0.0000 C   0  0
  2  1  2  0
  3  1  1  0
  4  7  1  0
  5  1  1  0
  6  4  1  0
  7 11  1  0
  8 21  1  0
  9  8  1  0
 10  3  2  0
 11 10  1  0
 12 17  1  0
 13  2  1  0
 14  3  1  0
 15  5  1  0
 16 14  3  0
 17 11  2  0
 18  6  1  0
 19  6  1  0
 20 18  1  0
 21 19  1  0
 22  9  2  0
 23  9  1  0
 24 13  1  0
 25 15  1  0
 26 23  1  0
 27 26  1  0
 28 24  2  0
 29 25  2  0
 15 13  2  0
 29 28  1  0
  4 12  2  0
  8 20  1  0
M  END
> <COMPOUND_ID>
DNDI1417894

$$$$

  SciTegic04051205032D

 28 31  0  0  0  0            999 V2000
    6.4369  -10.3624    0.0000 N   0  0
    6.4369  -11.1839    0.0000 C   0  0
    7.1450   -9.9396    0.0000 C   0  0
    5.6497  -11.4383    0.0000 N   0  0
    7.1450  -11.5896    0.0000 N   0  0
    7.8565  -10.3624    0.0000 C   0  0
    7.1381   -6.6568    0.0000 C   0  0
    5.6497  -10.1046    0.0000 N   0  0
    6.4266   -6.2306    0.0000 C   0  0
    7.1450   -9.1146    0.0000 S   0  0
    7.1381   -7.4818    0.0000 N   0  0
    5.1650  -10.7714    0.0000 C   0  0
    7.8565  -11.1839    0.0000 C   0  0
    7.8600   -8.7056    0.0000 C   0  0
    7.8565   -7.8874    0.0000 C   0  0
    7.8600   -6.2443    0.0000 O   0  0
    5.7115   -6.6431    0.0000 C   0  0
    6.4369   -5.4159    0.0000 C   0  0
    5.7081   -7.4681    0.0000 O   0  0
    8.5749  -11.5964    0.0000 C   0  0
    8.5681   -7.4681    0.0000 C   0  0
    8.5749   -9.1249    0.0000 C   0  0
    5.0000   -6.2203    0.0000 C   0  0
    6.4266   -7.8874    0.0000 C   0  0
    5.7253   -5.0000    0.0000 C   0  0
    9.2865   -8.7124    0.0000 C   0  0
    9.2865   -7.8806    0.0000 C   0  0
    5.0000   -5.4022    0.0000 C   0  0
  2  1  1  0
  3  1  1  0
  4  2  2  0
  5  2  1  0
  6  3  2  0
  7 11  1  0
  8  1  1  0
  9  7  1  0
 10  3  1  0
 11 15  1  0
 12  8  2  0
 13  6  1  0
 14 10  1  0
 15 14  1  0
 16  7  2  0
 17  9  1  0
 18  9  2  0
 19 17  1  0
 20 13  1  0
 21 15  2  0
 22 14  2  0
 23 17  2  0
 24 19  1  0
 25 18  1  0
 26 22  1  0
 27 26  2  0
 28 25  2  0
 12  4  1  0
  5 13  2  0
 21 27  1  0
 28 23  1  0
M  END
> <COMPOUND_ID>
DNDI1417895

$$$$

  SciTegic04051205032D

 29 32  0  0  0  0            999 V2000
    7.9198   -7.8947    0.0000 C   0  0
    8.6298   -8.3174    0.0000 N   0  0
    7.9198   -7.0814    0.0000 N   0  0
    9.3497   -7.8947    0.0000 C   0  0
    8.6298   -6.6601    0.0000 C   0  0
    9.3497   -7.0814    0.0000 N   0  0
    7.1972   -8.3174    0.0000 N   0  0
   10.0737   -8.2755    0.0000 N   0  0
    8.6298   -5.8259    0.0000 N   0  3
    7.1972   -9.1418    0.0000 C   0  0
    6.4801   -7.9240    0.0000 C   0  0
   11.5343   -9.0484    0.0000 O   0  0
   10.1155   -9.1000    0.0000 C   0  0
   10.7544   -7.8403    0.0000 C   0  0
    9.4613   -5.8259    0.0000 C   0  0
    7.8068   -5.8259    0.0000 C   0  0
    8.6298   -5.0000    0.0000 C   0  0
   10.8381   -9.4794    0.0000 C   0  0
   11.4994   -8.2337    0.0000 C   0  0
    7.8905   -9.5673    0.0000 C   0  0
    6.5010   -9.5352    0.0000 C   0  0
    6.4675   -7.1079    0.0000 C   0  0
    5.7561   -8.3299    0.0000 C   0  0
    7.8905  -10.3959    0.0000 C   0  0
    6.4801  -10.3764    0.0000 C   0  0
    5.7366   -6.6880    0.0000 C   0  0
    5.0195   -7.9240    0.0000 C   0  0
    7.1972  -10.8033    0.0000 C   0  0
    5.0000   -7.1121    0.0000 C   0  0
  2  1  2  0
  3  1  1  0
  4  2  1  0
  5  3  2  0
  6  5  1  0
  7  1  1  0
  8  4  1  0
  9  5  1  0
 10  7  1  0
 11  7  1  0
 12 19  1  0
 13  8  1  0
 14  8  1  0
 15  9  1  0
 16  9  1  0
 17  9  1  0
 18 13  1  0
 19 14  1  0
 20 10  1  0
 21 10  2  0
 22 11  2  0
 23 11  1  0
 24 20  2  0
 25 21  1  0
 26 22  1  0
 27 23  2  0
 28 25  2  0
 29 27  1  0
  4  6  2  0
 29 26  2  0
 28 24  1  0
 12 18  1  0
M  CHG  1   9   1
M  END
> <COMPOUND_ID>
DNDI1417896

$$$$

  SciTegic04051205032D

 26 28  0  0  0  0            999 V2000
    8.9346   -7.3427    0.0000 C   0  0
   10.2700   -6.4411    0.0000 C   0  0
   10.5681   -7.3578    0.0000 C   0  0
    9.2477   -6.4411    0.0000 C   0  0
    9.7456   -7.9425    0.0000 S   0  0
    8.1688   -7.4031    0.0000 C   0  0
   11.3037   -7.4144    0.0000 N   0  0
   10.8246   -5.9318    0.0000 C   0  0
    7.6557   -6.8183    0.0000 C   0  0
    8.6931   -5.9129    0.0000 C   0  0
    6.8749   -6.9805    0.0000 S   0  0
   11.5451   -8.1537    0.0000 C   0  0
    7.9274   -6.0676    0.0000 C   0  0
   10.5982   -5.1962    0.0000 O   0  0
   11.0170   -8.7385    0.0000 O   0  0
    7.8670   -8.1688    0.0000 O   0  0
    6.3354   -6.3845    0.0000 C   0  0
   11.5903   -6.0940    0.0000 O   0  0
   12.3260   -8.3046    0.0000 C   0  0
   12.1185   -5.5131    0.0000 C   0  0
    6.5768   -5.5998    0.0000 C   0  0
    5.5545   -6.5467    0.0000 C   0  0
   12.8655   -5.6752    0.0000 C   0  0
    6.0374   -5.0000    0.0000 C   0  0
    5.0000   -5.9318    0.0000 C   0  0
    5.2377   -5.1660    0.0000 C   0  0
  2  4  1  0
  3  5  1  0
  4  1  2  0
  5  1  1  0
  6  1  1  0
  7  3  1  0
  8  2  1  0
  9  6  1  0
 10  4  1  0
 11  9  1  0
 12  7  1  0
 13  9  1  0
 14  8  2  0
 15 12  2  0
 16  6  1  0
 17 11  1  0
 18  8  1  0
 19 12  1  0
 20 18  1  0
 21 17  2  0
 22 17  1  0
 23 20  1  0
 24 21  1  0
 25 22  2  0
 26 25  1  0
  3  2  2  0
 13 10  1  0
 26 24  2  0
M  END
> <COMPOUND_ID>
DNDI1417897

$$$$

  SciTegic04051205032D

 29 31  0  0  0  0            999 V2000
    6.3966  -11.0413    0.0000 N   0  3
    7.0828  -10.6272    0.0000 C   0  0
    7.0828  -12.2472    0.0000 C   0  0
    6.3966  -11.8452    0.0000 C   0  0
    7.7892  -11.0291    0.0000 C   0  0
    7.0950   -9.8233    0.0000 C   0  0
    7.0828  -13.0591    0.0000 C   0  0
    6.3966  -13.4530    0.0000 C   0  0
    6.3966  -14.2650    0.0000 C   0  0
    5.7024  -12.2472    0.0000 C   0  0
    7.7892   -9.4336    0.0000 C   0  0
    7.7892   -7.0056    0.0000 C   0  0
    5.6943  -13.0591    0.0000 C   0  0
    7.7771   -6.2180    0.0000 N   0  0
    7.0950  -14.6669    0.0000 O   0  0
    5.6943  -10.6231    0.0000 C   0  0
    8.4794   -7.4076    0.0000 C   0  0
    7.0828   -7.4076    0.0000 C   0  0
    7.7771   -8.6256    0.0000 C   0  0
    5.7024  -14.6669    0.0000 O   0  0
    8.5688  -11.2443    0.0000 C   0  0
    8.1303  -10.2983    0.0000 C   0  0
    8.4794   -8.2155    0.0000 C   0  0
    7.0828   -8.2155    0.0000 C   0  0
    7.0787   -5.8161    0.0000 C   0  0
    8.4713   -5.8039    0.0000 C   0  0
    5.0000  -14.2650    0.0000 C   0  0
    7.0665   -5.0081    0.0000 C   0  0
    8.4591   -5.0000    0.0000 C   0  0
  2  1  2  0
  3  4  2  0
  4  1  1  0
  5  2  1  0
  6  2  1  0
  7  3  1  0
  8 13  1  0
  9  8  1  0
 10  4  1  0
 11  6  2  0
 12 18  1  0
 13 10  2  0
 14 12  1  0
 15  9  2  0
 16  1  1  0
 17 23  1  0
 18 24  2  0
 19 11  1  0
 20  9  1  0
 21  5  1  0
 22  5  1  0
 23 19  2  0
 24 19  1  0
 25 14  1  0
 26 14  1  0
 27 20  1  0
 28 25  1  0
 29 26  1  0
  5  3  1  0
  7  8  2  0
 12 17  2  0
M  CHG  1   1   1
M  END
> <COMPOUND_ID>
DNDI1417898

$$$$

  SciTegic04051205032D

 28 31  0  0  0  0            999 V2000
    6.4232   -7.4719    0.0000 C   0  0
    7.1431   -7.8881    0.0000 N   0  0
    7.1431  -13.6601    0.0000 C   0  0
    6.4232   -6.6521    0.0000 N   0  0
    7.1431   -8.7121    0.0000 C   0  0
    6.4232   -9.1323    0.0000 C   0  0
    5.7116   -8.7079    0.0000 C   0  0
    7.1431  -12.8319    0.0000 C   0  0
    5.7116   -7.8839    0.0000 C   0  0
    6.4732  -14.1470    0.0000 C   0  0
    7.8090  -14.1553    0.0000 S   0  0
    6.4232  -11.6002    0.0000 C   0  0
    6.4232  -12.4241    0.0000 C   0  0
    7.5468  -14.9293    0.0000 C   0  0
    7.1348  -11.1882    0.0000 N   0  0
    6.4232   -9.9438    0.0000 C   0  0
    6.7229  -14.9293    0.0000 C   0  0
    7.1348  -10.3558    0.0000 C   0  0
    5.7116  -11.1882    0.0000 O   0  0
    7.8547   -9.1198    0.0000 C   0  0
    7.8547   -9.9480    0.0000 C   0  0
    5.7116   -6.2359    0.0000 C   0  0
    7.1473   -6.2359    0.0000 C   0  0
    5.0000   -9.1198    0.0000 C   0  0
    5.6866  -13.8848    0.0000 C   0  0
    7.1473   -5.4162    0.0000 C   0  0
    5.7199   -5.4120    0.0000 C   0  0
    6.4357   -5.0000    0.0000 C   0  0
  2  1  2  0
  3  8  1  0
  4  1  1  0
  5  2  1  0
  6  7  1  0
  7  9  2  0
  8 13  2  0
  9  1  1  0
 10  3  2  0
 11  3  1  0
 12 15  1  0
 13 12  1  0
 14 11  1  0
 15 18  1  0
 16  6  2  0
 17 10  1  0
 18 16  1  0
 19 12  2  0
 20  5  2  0
 21 20  1  0
 22  4  1  0
 23  4  1  0
 24  7  1  0
 25 10  1  0
 26 23  1  0
 27 22  1  0
 28 26  1  0
  6  5  1  0
 28 27  1  0
 18 21  2  0
 14 17  2  0
M  END
> <COMPOUND_ID>
DNDI1417899

$$$$

  SciTegic04051205032D

 28 30  0  0  0  0            999 V2000
    7.3786   -6.8974    0.0000 N   0  0
    8.1657   -6.6464    0.0000 C   0  0
    7.1242   -7.6845    0.0000 C   0  0
    6.2993   -7.6845    0.0000 C   0  0
    6.7118   -6.4161    0.0000 N   0  0
    9.5063   -6.6464    0.0000 C   0  0
    8.8291   -7.1346    0.0000 S   0  0
    8.4235   -5.8593    0.0000 N   0  0
    9.2518   -5.8593    0.0000 C   0  0
    6.0483   -6.8974    0.0000 C   0  0
   10.2865   -6.9042    0.0000 C   0  0
    5.8146   -8.3547    0.0000 C   0  0
    7.6123   -8.3547    0.0000 O   0  0
   10.4549   -7.7086    0.0000 O   0  0
    6.3302   -8.9975    0.0000 C   0  0
   10.9017   -6.3542    0.0000 O   0  0
    7.3614  -10.2830    0.0000 C   0  0
    9.7296   -5.1959    0.0000 C   0  0
    7.8735  -10.9293    0.0000 Cl  0  0
    5.2646   -6.6464    0.0000 C   0  0
    6.0277   -9.7675    0.0000 C   0  0
    7.1414   -8.8703    0.0000 C   0  0
    7.6535   -9.5097    0.0000 C   0  0
    6.5398  -10.4102    0.0000 C   0  0
   10.7299   -5.5465    0.0000 C   0  0
   11.3418   -5.0000    0.0000 C   0  0
    5.1650   -8.8703    0.0000 H   0  0
    5.0000   -8.4819    0.0000 H   0  0
  2  1  1  0
  3  1  1  0
  4  3  2  0
  5  1  1  0
  6  7  1  0
  7  2  1  0
  8  2  2  0
  9  8  1  0
 10  5  2  0
 11  6  1  0
 12  4  1  0
 13  3  1  0
 14 11  2  0
 15 12  1  0
 16 11  1  0
 17 23  1  0
 18  9  1  0
 19 17  1  0
 20 10  1  0
 21 15  2  0
 22 15  1  0
 23 22  2  0
 24 21  1  0
 25 16  1  0
 26 25  1  0
  4 10  1  0
  9  6  2  0
 17 24  2  0
 27 12  1  0
 28 12  1  0
M  END
> <COMPOUND_ID>
DNDI1417900

$$$$

  SciTegic04051205032D

 26 28  0  0  0  0            999 V2000
    8.5852   -7.1174    0.0000 C   0  0
    9.3036   -7.5368    0.0000 N   0  0
    7.8805   -7.5368    0.0000 N   0  0
   10.0152   -6.2959    0.0000 C   0  0
    9.3036  -10.0187    0.0000 N   0  0
    5.7287   -7.1174    0.0000 C   0  0
   10.6202   -5.7425    0.0000 S   0  0
    6.4506   -7.5368    0.0000 C   0  0
    9.3036   -8.3584    0.0000 C   0  0
   10.0221   -7.1174    0.0000 C   0  0
    7.1450   -7.1174    0.0000 C   0  0
    8.5852   -6.2959    0.0000 O   0  0
   10.0221   -8.7777    0.0000 C   0  0
    8.5990   -8.7777    0.0000 C   0  0
   10.2868   -5.0000    0.0000 C   0  0
    5.7287   -6.2959    0.0000 C   0  0
    9.3036   -5.8766    0.0000 C   0  0
    9.4756   -5.0825    0.0000 C   0  0
    8.5990   -9.5993    0.0000 C   0  0
   10.0221   -9.5993    0.0000 C   0  0
    6.4506   -5.8766    0.0000 C   0  0
    5.0000   -7.5368    0.0000 Cl  0  0
    7.1450   -6.2959    0.0000 C   0  0
    9.3036  -10.8402    0.0000 C   0  0
    5.0000   -5.8766    0.0000 C   0  0
   10.0221  -11.2596    0.0000 C   0  0
  2  1  1  0
  3  1  1  0
  4 10  1  0
  5 19  1  0
  6  8  2  0
  7  4  1  0
  8 11  1  0
  9  2  1  0
 10  2  1  0
 11  3  1  0
 12  1  2  0
 13  9  1  0
 14  9  1  0
 15  7  1  0
 16 21  2  0
 17  4  2  0
 18 17  1  0
 19 14  1  0
 20 13  1  0
 21 23  1  0
 22  6  1  0
 23 11  2  0
 24  5  1  0
 25 16  1  0
 26 24  1  0
 20  5  1  0
  6 16  1  0
 15 18  2  0
M  END
> <COMPOUND_ID>
DNDI1417901

$$$$

  SciTegic04051205032D

 29 32  0  0  0  0            999 V2000
    7.8605   -7.4744    0.0000 C   0  0
    7.8605   -6.6612    0.0000 C   0  0
    7.1526   -7.8780    0.0000 N   0  0
    8.5625   -7.8780    0.0000 N   0  0
    9.2995   -6.6612    0.0000 C   0  0
    7.1526   -6.2401    0.0000 C   0  0
    9.2995   -7.4860    0.0000 C   0  0
    6.4507   -6.6437    0.0000 N   0  0
    6.4331   -7.4568    0.0000 C   0  0
    8.5800   -6.2401    0.0000 C   0  0
   10.0307   -6.2460    0.0000 C   0  0
   11.9962   -9.4223    0.0000 N   0  0
   10.6859   -9.1416    0.0000 N   0  0
   10.0131   -7.9072    0.0000 N   0  0
    5.7195   -6.2225    0.0000 C   0  0
   11.4346   -8.8081    0.0000 C   0  0
    7.1585   -5.3977    0.0000 O   0  0
    5.7195   -7.8780    0.0000 C   0  0
   11.5750  -10.1243    0.0000 C   0  0
   10.7736   -9.9605    0.0000 C   0  0
   10.7326   -6.6671    0.0000 O   0  0
    8.5566   -8.7028    0.0000 C   0  0
    5.0000   -6.6437    0.0000 C   0  0
    5.0000   -7.4568    0.0000 C   0  0
    9.2644   -9.1240    0.0000 C   0  0
   10.0307   -5.4212    0.0000 O   0  0
    9.9839   -8.7204    0.0000 C   0  0
   10.7385   -5.0000    0.0000 C   0  0
   11.4405   -5.4212    0.0000 C   0  0
  2  1  2  0
  3  1  1  0
  4  1  1  0
  5  7  1  0
  6  2  1  0
  7  4  1  0
  8  9  1  0
  9  3  2  0
 10  2  1  0
 11  5  1  0
 12 16  2  0
 13 27  1  0
 14  7  2  0
 15  8  1  0
 16 13  1  0
 17  6  2  0
 18  9  1  0
 19 20  2  0
 20 13  1  0
 21 11  2  0
 22  4  1  0
 23 24  1  0
 24 18  2  0
 25 22  1  0
 26 11  1  0
 27 25  1  0
 28 26  1  0
 29 28  1  0
  5 10  2  0
  8  6  1  0
 23 15  2  0
 12 19  1  0
M  END
> <COMPOUND_ID>
DNDI1417902

$$$$

  SciTegic04051205032D

 30 33  0  0  0  0            999 V2000
    7.8749   -7.8819    0.0000 C   0  0
    8.6231   -7.4766    0.0000 C   0  0
    7.1614   -7.4454    0.0000 C   0  0
    7.8749   -8.6716    0.0000 C   0  0
   10.1194   -7.9095    0.0000 N   0  0
    9.3124   -7.9095    0.0000 N   0  0
   11.3595   -7.2272    0.0000 C   0  0
   10.9230   -7.9095    0.0000 C   0  0
    7.1614   -9.0976    0.0000 C   0  0
    6.4444   -7.8611    0.0000 C   0  0
   12.1561   -7.1960    0.0000 C   0  0
    6.4444   -8.6924    0.0000 C   0  0
    8.6231   -6.6765    0.0000 O   0  0
   11.3767   -8.6161    0.0000 C   0  0
    8.6231   -9.0734    0.0000 O   0  0
   12.5441   -6.4479    0.0000 C   0  0
    5.7170   -7.4454    0.0000 C   0  0
    5.7170   -9.0976    0.0000 C   0  0
   12.1977   -8.6161    0.0000 C   0  0
   10.9195   -9.3227    0.0000 C   0  0
   12.1249   -5.7620    0.0000 C   0  0
   13.3857   -6.4236    0.0000 C   0  0
    5.0000   -8.6716    0.0000 C   0  0
    5.0000   -7.8819    0.0000 C   0  0
   11.3179  -10.0432    0.0000 C   0  0
   12.5960   -9.3470    0.0000 C   0  0
   12.4817   -5.0346    0.0000 C   0  0
   13.7356   -5.6893    0.0000 C   0  0
   12.1977  -10.0848    0.0000 C   0  0
   13.2887   -5.0000    0.0000 C   0  0
  2  1  1  0
  3  1  1  0
  4  1  2  0
  5  6  1  0
  6  2  1  0
  7  8  1  0
  8  5  2  0
  9  4  1  0
 10  3  2  0
 11  7  2  0
 12  9  2  0
 13  2  2  0
 14  8  1  0
 15  4  1  0
 16 11  1  0
 17 10  1  0
 18 12  1  0
 19 14  1  0
 20 14  2  0
 21 16  1  0
 22 16  2  0
 23 18  2  0
 24 17  2  0
 25 20  1  0
 26 19  2  0
 27 21  2  0
 28 22  1  0
 29 25  2  0
 30 28  2  0
 12 10  1  0
 23 24  1  0
 26 29  1  0
 27 30  1  0
M  END
> <COMPOUND_ID>
DNDI1417903

$$$$

  SciTegic04051205032D

 29 32  0  0  0  0            999 V2000
    6.4231   -8.7090    0.0000 C   0  0
    6.4231  -12.8408    0.0000 C   0  0
    7.1415   -9.1249    0.0000 N   0  0
    6.4231  -13.6623    0.0000 C   0  0
    6.4231   -7.8874    0.0000 N   0  0
    7.1415   -9.9499    0.0000 C   0  0
    6.4231  -10.3727    0.0000 C   0  0
    7.1312  -12.4283    0.0000 N   0  0
    5.7115   -9.9464    0.0000 C   0  0
    5.7115   -9.1215    0.0000 C   0  0
    6.4368   -6.2375    0.0000 N   0  0
    7.1312  -14.0748    0.0000 C   0  0
    7.1312  -11.5930    0.0000 C   0  0
    6.4231  -11.1839    0.0000 C   0  0
    5.7115  -12.4180    0.0000 O   0  0
    7.1483   -7.4715    0.0000 C   0  0
    5.7115   -7.4715    0.0000 C   0  0
    7.8565  -10.3589    0.0000 C   0  0
    5.7219   -6.6500    0.0000 C   0  0
    7.1483   -6.6534    0.0000 C   0  0
    7.8565  -11.1874    0.0000 C   0  0
    7.8565  -13.6623    0.0000 F   0  0
    5.7115  -14.0748    0.0000 C   0  0
    6.4368   -5.4125    0.0000 C   0  0
    5.0000  -10.3589    0.0000 C   0  0
    7.1415  -14.8998    0.0000 C   0  0
    7.1483   -5.0000    0.0000 C   0  0
    5.7115  -14.8998    0.0000 C   0  0
    6.4231  -15.3123    0.0000 C   0  0
  2  8  1  0
  3  1  2  0
  4  2  1  0
  5  1  1  0
  6  3  1  0
  7  9  1  0
  8 13  1  0
  9 10  2  0
 10  1  1  0
 11 19  1  0
 12  4  1  0
 13 14  1  0
 14  7  2  0
 15  2  2  0
 16  5  1  0
 17  5  1  0
 18  6  2  0
 19 17  1  0
 20 16  1  0
 21 18  1  0
 22 12  1  0
 23  4  2  0
 24 11  1  0
 25  9  1  0
 26 12  2  0
 27 24  1  0
 28 23  1  0
 29 28  2  0
  7  6  1  0
 20 11  1  0
 13 21  2  0
 26 29  1  0
M  END
> <COMPOUND_ID>
DNDI1417904

$$$$

  SciTegic04051205032D

 28 31  0  0  0  0            999 V2000
    8.7369   -7.5395    0.0000 N   0  0
    9.4570   -8.7967    0.0000 N   0  0
    8.7494   -8.3845    0.0000 C   0  0
    9.4363   -7.1481    0.0000 C   0  0
   10.1606   -8.3845    0.0000 C   0  0
   10.1606   -7.5395    0.0000 C   0  0
    9.4363   -6.3238    0.0000 C   0  0
   10.8725   -8.7967    0.0000 C   0  0
    5.8769  -10.0248    0.0000 C   0  0
   10.0232   -5.7368    0.0000 S   0  0
    8.0333   -8.7967    0.0000 C   0  0
    6.5970   -9.6209    0.0000 C   0  0
    8.6994   -5.9492    0.0000 C   0  0
   11.5927   -8.3845    0.0000 C   0  0
    9.6444   -5.0000    0.0000 C   0  0
    5.1650   -9.6126    0.0000 O   0  0
    8.8243   -5.1291    0.0000 C   0  0
    8.0250   -9.6209    0.0000 C   0  0
    7.3131   -8.3845    0.0000 C   0  0
    7.3131  -10.0331    0.0000 C   0  0
    6.6137   -8.7967    0.0000 C   0  0
    5.8769  -10.8491    0.0000 O   0  0
   11.6094   -7.5395    0.0000 O   0  0
   10.8725   -9.6209    0.0000 C   0  0
   12.2962   -8.7967    0.0000 C   0  0
    6.5888  -11.2612    0.0000 C   0  0
   11.5844  -10.0331    0.0000 C   0  0
   12.2838   -9.6209    0.0000 C   0  0
  2  3  1  0
  3  1  1  0
  4  1  2  0
  5  6  1  0
  6  4  1  0
  7  4  1  0
  8  5  1  0
  9 12  1  0
 10  7  1  0
 11  3  1  0
 12 21  2  0
 13  7  2  0
 14  8  2  0
 15 10  1  0
 16  9  2  0
 17 13  1  0
 18 11  1  0
 19 11  2  0
 20 18  2  0
 21 19  1  0
 22  9  1  0
 23 14  1  0
 24  8  1  0
 25 14  1  0
 26 22  1  0
 27 24  2  0
 28 27  1  0
  5  2  1  0
 15 17  2  0
 20 12  1  0
 28 25  2  0
M  END
> <COMPOUND_ID>
DNDI1417905

$$$$

  SciTegic04051205032D

 28 31  0  0  0  0            999 V2000
    6.9498   -6.4573    0.0000 N   0  0
    6.9365   -5.6596    0.0000 C   0  0
    8.3192   -6.4528    0.0000 C   0  0
    7.6279   -6.8428    0.0000 C   0  0
    7.6190   -5.2475    0.0000 N   0  0
    9.4138   -8.8503    0.0000 N   0  0
    8.3104   -5.6551    0.0000 C   0  0
    9.0238   -7.6405    0.0000 C   0  0
    9.0105   -6.8428    0.0000 C   0  0
    8.6161   -8.8636    0.0000 C   0  0
    9.6619   -8.1058    0.0000 C   0  0
    8.3724   -8.1058    0.0000 C   0  0
    6.2364   -5.2696    0.0000 S   0  0
    5.5672   -6.4706    0.0000 C   0  0
   10.0520   -9.7366    0.0000 C   0  0
    5.5539   -5.6729    0.0000 C   0  0
    7.6412   -7.6405    0.0000 N   0  0
    9.0017   -5.2475    0.0000 O   0  0
   10.8496   -9.6480    0.0000 C   0  0
    8.1508   -9.5150    0.0000 C   0  0
   10.4109   -7.8532    0.0000 C   0  0
   11.1687   -8.9168    0.0000 O   0  0
    9.7329  -10.4590    0.0000 C   0  0
    5.0000   -7.0422    0.0000 C   0  0
   11.3149  -10.2994    0.0000 C   0  0
   10.6901   -8.2786    0.0000 C   0  0
   10.1982  -11.1104    0.0000 C   0  0
   10.9914  -11.0262    0.0000 C   0  0
  2  1  1  0
  3  4  1  0
  4  1  1  0
  5  2  2  0
  6 11  1  0
  7  3  1  0
  8  9  1  0
  9  3  2  0
 10 12  2  0
 11  8  2  0
 12  8  1  0
 13  2  1  0
 14  1  1  0
 15  6  1  0
 16 14  2  0
 17  4  2  0
 18  7  2  0
 19 15  2  0
 20 10  1  0
 21 11  1  0
 22 19  1  0
 23 15  1  0
 24 14  1  0
 25 19  1  0
 26 22  1  0
 27 23  2  0
 28 27  1  0
 16 13  1  0
  5  7  1  0
  6 10  1  0
 28 25  2  0
M  END
> <COMPOUND_ID>
DNDI1417906

$$$$

  SciTegic04051205032D

 28 31  0  0  0  0            999 V2000
    7.1489   -9.7827    0.0000 C   0  0
    7.1364   -8.9373    0.0000 N   0  0
    7.8485  -10.1949    0.0000 N   0  0
    8.5689   -9.7827    0.0000 C   0  0
    7.8485   -8.5458    0.0000 C   0  0
    6.4326  -10.1867    0.0000 C   0  0
    8.5689   -8.9373    0.0000 C   0  0
    9.2853  -10.1949    0.0000 C   0  0
    7.8443   -7.7254    0.0000 C   0  0
    5.7204   -9.7744    0.0000 C   0  0
    9.9974   -9.7827    0.0000 C   0  0
    7.1239   -7.3090    0.0000 C   0  0
    8.5440   -7.3090    0.0000 C   0  0
    7.8235   -6.0721    0.0000 C   0  0
    8.5440   -6.4636    0.0000 C   0  0
    7.1239   -6.4636    0.0000 C   0  0
    7.8235   -5.2475    0.0000 Cl  0  0
    9.9932   -8.9581    0.0000 O   0  0
    6.4367  -11.0112    0.0000 C   0  0
    5.7121   -8.9498    0.0000 O   0  0
    9.2853  -11.0195    0.0000 C   0  0
    5.0083  -10.1867    0.0000 C   0  0
   10.7095  -10.1949    0.0000 C   0  0
    5.0000   -8.5375    0.0000 C   0  0
    5.7246  -11.4235    0.0000 C   0  0
   10.0057  -11.4318    0.0000 C   0  0
   10.7095  -11.0195    0.0000 C   0  0
    5.0083  -11.0112    0.0000 C   0  0
  2  1  1  0
  3  1  1  0
  4  3  1  0
  5  2  2  0
  6  1  1  0
  7  4  1  0
  8  4  1  0
  9  5  1  0
 10  6  2  0
 11  8  2  0
 12  9  1  0
 13  9  2  0
 14 15  2  0
 15 13  1  0
 16 12  2  0
 17 14  1  0
 18 11  1  0
 19  6  1  0
 20 10  1  0
 21  8  1  0
 22 10  1  0
 23 11  1  0
 24 20  1  0
 25 19  2  0
 26 21  2  0
 27 26  1  0
 28 25  1  0
  7  5  1  0
 28 22  2  0
 14 16  1  0
 23 27  2  0
M  END
> <COMPOUND_ID>
DNDI1417907

$$$$

  SciTegic04051205032D

 28 31  0  0  0  0            999 V2000
    7.1420   -7.4504    0.0000 C   0  0
    7.1420   -9.1301    0.0000 N   0  0
    7.8702   -8.7258    0.0000 C   0  0
    7.8702   -7.8747    0.0000 C   0  0
    7.1420   -6.6262    0.0000 C   0  0
    6.4340   -7.8747    0.0000 C   0  0
    6.4340   -8.7012    0.0000 C   0  0
    7.8702   -6.2263    0.0000 N   0  0
    8.5582   -6.6463    0.0000 N   0  0
   10.7293   -5.4267    0.0000 N   0  0
    8.5582   -9.1301    0.0000 C   0  0
    9.2908   -6.2487    0.0000 C   0  0
    6.4340   -6.2263    0.0000 O   0  0
   10.0011   -6.6463    0.0000 C   0  0
    9.2908   -5.4267    0.0000 C   0  0
    9.2908   -8.7258    0.0000 C   0  0
    8.5582   -9.9520    0.0000 C   0  0
   10.7069   -6.2487    0.0000 C   0  0
   10.0011   -5.0269    0.0000 C   0  0
    9.9721   -9.9788    0.0000 C   0  0
    9.9721   -9.1502    0.0000 C   0  0
    9.2640  -10.3541    0.0000 C   0  0
   10.6824  -10.4278    0.0000 Cl  0  0
   11.4396   -5.0000    0.0000 C   0  0
    5.7237   -7.4504    0.0000 C   0  0
    5.7237   -9.1301    0.0000 C   0  0
    5.0000   -7.8747    0.0000 C   0  0
    5.0000   -8.7258    0.0000 C   0  0
  2  3  1  0
  3  4  2  0
  4  1  1  0
  5  1  1  0
  6  1  2  0
  7  6  1  0
  8  5  1  0
  9  8  1  0
 10 18  1  0
 11  3  1  0
 12  9  2  0
 13  5  2  0
 14 12  1  0
 15 12  1  0
 16 11  1  0
 17 11  2  0
 18 14  1  0
 19 15  1  0
 20 22  2  0
 21 16  2  0
 22 17  1  0
 23 20  1  0
 24 10  1  0
 25  6  1  0
 26  7  1  0
 27 25  2  0
 28 27  1  0
  2  7  2  0
 28 26  2  0
 20 21  1  0
 10 19  1  0
M  END
> <COMPOUND_ID>
DNDI1417908

$$$$

  SciTegic04051205032D

 28 31  0  0  0  0            999 V2000
   11.4215   -7.4785    0.0000 C   0  0
   10.7064   -7.8910    0.0000 N   0  0
    8.5614   -9.1286    0.0000 C   0  0
   12.1331   -7.8910    0.0000 N   0  0
   11.4215   -6.6500    0.0000 N   0  0
    7.8463   -8.7161    0.0000 N   0  0
   12.8515   -6.6500    0.0000 C   0  0
   12.8515   -7.4785    0.0000 C   0  0
   12.1331   -6.2375    0.0000 C   0  0
    9.2730   -8.7161    0.0000 C   0  0
    9.9949   -7.4785    0.0000 C   0  0
   10.7064   -8.7161    0.0000 C   0  0
    7.1279   -9.1286    0.0000 C   0  0
    8.5614   -9.9536    0.0000 O   0  0
    6.4163   -8.7161    0.0000 C   0  0
   13.5665   -6.2375    0.0000 C   0  0
    9.2730   -7.8910    0.0000 C   0  0
    9.9949   -9.1286    0.0000 C   0  0
    5.6944   -9.1286    0.0000 C   0  0
    5.0000   -8.7161    0.0000 Cl  0  0
    6.4163  -10.3661    0.0000 C   0  0
    7.1279   -9.9536    0.0000 C   0  0
   13.5665   -5.4125    0.0000 C   0  0
   14.2781   -6.6500    0.0000 C   0  0
    5.6944   -9.9536    0.0000 C   0  0
   14.2781   -5.0000    0.0000 C   0  0
   14.9897   -6.2375    0.0000 C   0  0
   14.9897   -5.4125    0.0000 C   0  0
  2  1  1  0
  3 10  1  0
  4  1  2  0
  5  1  1  0
  6  3  1  0
  7  9  1  0
  8  4  1  0
  9  5  2  0
 10 18  1  0
 11  2  1  0
 12  2  1  0
 13  6  1  0
 14  3  2  0
 15 13  2  0
 16  7  1  0
 17 11  1  0
 18 12  1  0
 19 15  1  0
 20 19  1  0
 21 22  2  0
 22 13  1  0
 23 16  1  0
 24 16  2  0
 25 21  1  0
 26 23  2  0
 27 24  1  0
 28 27  2  0
  7  8  2  0
 17 10  1  0
 26 28  1  0
 19 25  2  0
M  END
> <COMPOUND_ID>
DNDI1417909

$$$$

  SciTegic04051205032D

 26 29  0  0  0  0            999 V2000
    8.2302   -6.6117    0.0000 C   0  0
    8.0485   -5.8196    0.0000 C   0  0
    7.7124   -7.2426    0.0000 C   0  0
    7.3214   -5.4526    0.0000 S   0  0
    8.1616   -7.9421    0.0000 N   0  0
    9.0120   -6.8551    0.0000 C   0  0
    6.9100   -7.2426    0.0000 C   0  0
    8.6519   -5.2709    0.0000 C   0  0
    6.5808   -5.8127    0.0000 C   0  0
    9.6224   -6.3031    0.0000 C   0  0
    9.4441   -5.5110    0.0000 C   0  0
    6.3991   -6.5808    0.0000 C   0  0
    9.0429   -9.3652    0.0000 N   0  0
    7.7913   -8.6759    0.0000 C   0  0
    8.9846   -7.9558    0.0000 C   0  0
    9.4441   -8.5971    0.0000 C   0  0
    8.2302   -9.3755    0.0000 C   0  0
   10.5448   -6.4333    0.0000 F   0  0
   10.1230   -5.0000    0.0000 Cl  0  0
    9.5092  -10.0339    0.0000 C   0  0
   10.8054  -10.6682    0.0000 O   0  0
    5.9705   -5.2435    0.0000 C   0  0
    5.6104   -6.8414    0.0000 C   0  0
   10.3836  -10.0270    0.0000 C   0  0
    5.1783   -5.5007    0.0000 C   0  0
    5.0000   -6.2722    0.0000 C   0  0
  2  1  1  0
  3  1  1  0
  4  2  1  0
  5  3  1  0
  6  1  2  0
  7  3  1  0
  8  2  2  0
  9  4  1  0
 10  6  1  0
 11 10  2  0
 12  7  1  0
 13 16  1  0
 14  5  1  0
 15  5  1  0
 16 15  1  0
 17 14  1  0
 18 10  1  0
 19 11  1  0
 20 13  1  0
 21 24  1  0
 22  9  1  0
 23 12  1  0
 24 20  1  0
 25 22  2  0
 26 23  2  0
 11  8  1  0
  9 12  2  0
 13 17  1  0
 25 26  1  0
M  END
> <COMPOUND_ID>
DNDI1417910

$$$$

  SciTegic04051205032D

 26 28  0  0  0  0            999 V2000
    8.8775   -8.2227    0.0000 N   0  0
    8.1816   -8.6665    0.0000 C   0  0
    9.5128   -8.7538    0.0000 C   0  0
    9.2145   -9.5103    0.0000 N   0  0
   10.3178   -8.5622    0.0000 C   0  0
    8.3901   -9.4594    0.0000 S   0  0
    7.3814   -8.4483    0.0000 N   0  0
    6.1568   -6.6369    0.0000 C   0  0
    6.3775   -7.4371    0.0000 C   0  0
   10.5603   -7.7693    0.0000 C   0  0
    7.1680   -7.6481    0.0000 C   0  0
    6.7412   -6.0477    0.0000 C   0  0
   13.2882   -8.6083    0.0000 C   0  0
   13.0481   -9.3988    0.0000 C   0  0
    7.5414   -6.2708    0.0000 C   0  0
   11.3653   -7.5874    0.0000 N   0  0
    5.3300   -6.6369    0.0000 Cl  0  0
    7.7572   -7.0709    0.0000 C   0  0
    6.5303   -5.2475    0.0000 F   0  0
   11.9279   -8.1864    0.0000 C   0  0
   12.7281   -8.0045    0.0000 C   0  0
   14.0884   -8.4240    0.0000 C   0  0
   10.0050   -7.1607    0.0000 C   0  0
   13.6010   -9.9977    0.0000 C   0  0
   14.6533   -9.0302    0.0000 C   0  0
   14.4084   -9.8158    0.0000 C   0  0
  2  1  2  0
  3  1  1  0
  4  3  2  0
  5  3  1  0
  6  2  1  0
  7  2  1  0
  8  9  2  0
  9 11  1  0
 10  5  2  0
 11  7  1  0
 12 15  2  0
 13 21  1  0
 14 13  2  0
 15 18  1  0
 16 10  1  0
 17  8  1  0
 18 11  2  0
 19 12  1  0
 20 16  1  0
 21 20  1  0
 22 13  1  0
 23 10  1  0
 24 14  1  0
 25 22  1  0
 26 25  1  0
  4  6  1  0
  8 12  1  0
 26 24  1  0
M  END
> <COMPOUND_ID>
DNDI1417911

$$$$

  SciTegic04051205032D

 24 26  0  0  0  0            999 V2000
    8.9185   -6.2312    0.0000 C   0  0
    8.9185   -7.0519    0.0000 C   0  0
    8.1836   -5.8303    0.0000 C   0  0
    8.1836   -7.4718    0.0000 O   0  0
    7.4837   -6.2312    0.0000 C   0  0
   10.3310   -6.2312    0.0000 N   0  0
    7.4837   -7.0519    0.0000 C   0  0
    9.6247   -5.8176    0.0000 C   0  0
   10.3310   -7.0519    0.0000 N   0  0
   11.0467   -7.4686    0.0000 C   0  0
   11.7625   -7.0519    0.0000 C   0  0
   12.4846   -7.4718    0.0000 C   0  0
    9.6247   -7.4718    0.0000 O   0  0
    6.7616   -5.8303    0.0000 C   0  0
    6.7616   -7.4718    0.0000 C   0  0
   11.0467   -8.2926    0.0000 C   0  0
   12.4846   -8.2926    0.0000 C   0  0
    6.0458   -6.2312    0.0000 C   0  0
   11.7625   -6.2312    0.0000 F   0  0
   11.7593   -8.7030    0.0000 C   0  0
    6.0458   -7.0519    0.0000 C   0  0
   13.2100   -8.7030    0.0000 F   0  0
    5.3300   -5.8176    0.0000 Br  0  0
    9.6247   -5.0000    0.0000 C   0  0
  2  1  1  0
  3  1  2  0
  4  2  1  0
  5  3  1  0
  6  8  2  0
  7  5  2  0
  8  1  1  0
  9  6  1  0
 10  9  1  0
 11 10  1  0
 12 11  2  0
 13  2  2  0
 14  5  1  0
 15  7  1  0
 16 10  2  0
 17 20  2  0
 18 14  2  0
 19 11  1  0
 20 16  1  0
 21 18  1  0
 22 17  1  0
 23 18  1  0
 24  8  1  0
  4  7  1  0
 21 15  2  0
 12 17  1  0
M  END
> <COMPOUND_ID>
DNDI1417912

$$$$

  SciTegic04051205032D

 24 26  0  0  0  0            999 V2000
   10.0519   -7.0542    0.0000 C   0  0
    7.8794   -5.8395    0.0000 C   0  0
    8.5834   -6.2415    0.0000 C   0  0
    7.1687   -6.2636    0.0000 C   0  0
   10.7473   -7.4812    0.0000 N   0  0
   10.0519   -6.2415    0.0000 C   0  0
    9.3076   -5.8213    0.0000 C   0  0
    7.1687   -7.0744    0.0000 C   0  0
    6.4426   -7.5100    0.0000 C   0  0
    9.3076   -7.4581    0.0000 C   0  0
    8.5834   -7.0542    0.0000 C   0  0
    5.7203   -7.0975    0.0000 C   0  0
   12.1466   -8.3439    0.0000 N   0  0
    6.4426   -5.8597    0.0000 C   0  0
    7.8794   -5.0000    0.0000 O   0  0
    5.7203   -6.2636    0.0000 C   0  0
   10.7703   -5.8395    0.0000 F   0  0
    6.4426   -8.3208    0.0000 Br  0  0
    5.0000   -7.5100    0.0000 O   0  0
   11.4715   -7.0975    0.0000 C   0  0
   10.7271   -8.3006    0.0000 C   0  0
   12.1668   -7.5331    0.0000 C   0  0
   11.4282   -8.7276    0.0000 C   0  0
    5.0000   -8.3208    0.0000 C   0  0
  2  3  1  0
  3 11  2  0
  4  2  1  0
  5  1  1  0
  6  1  1  0
  7  6  2  0
  8  4  1  0
  9  8  2  0
 10  1  2  0
 11 10  1  0
 12 16  2  0
 13 23  1  0
 14  4  2  0
 15  2  2  0
 16 14  1  0
 17  6  1  0
 18  9  1  0
 19 12  1  0
 20  5  1  0
 21  5  1  0
 22 20  1  0
 23 21  1  0
 24 19  1  0
  3  7  1  0
 22 13  1  0
  9 12  1  0
M  END
> <COMPOUND_ID>
DNDI1417913

$$$$

  SciTegic04051205032D

 27 30  0  0  0  0            999 V2000
    6.9504   -6.9628    0.0000 N   0  0
    6.8132   -7.7862    0.0000 C   0  0
    7.7779   -6.8298    0.0000 N   0  0
    7.5575   -8.1730    0.0000 C   0  0
    8.1522   -7.5824    0.0000 C   0  0
    6.0397   -8.1438    0.0000 C   0  0
    8.9839   -7.7197    0.0000 C   0  0
    9.2834   -8.5016    0.0000 C   0  0
   10.4020   -9.4206    0.0000 C   0  0
    6.3723   -6.3765    0.0000 C   0  0
    7.6906   -8.9632    0.0000 C   0  0
   10.1068   -8.6388    0.0000 C   0  0
    5.8941   -8.9382    0.0000 C   0  0
   11.2254   -9.5578    0.0000 C   0  0
    5.3244   -7.5866    0.0000 O   0  0
    7.1999   -9.4580    0.0000 C   0  0
    6.3765   -9.4497    0.0000 C   0  0
    9.8697  -10.0693    0.0000 Cl  0  0
   11.5165  -10.3271    0.0000 Cl  0  0
   11.4582   -8.1189    0.0000 C   0  0
   10.6307   -7.9859    0.0000 C   0  0
   11.7618   -8.9091    0.0000 C   0  0
    5.5781   -6.5844    0.0000 C   0  0
    6.5927   -5.5822    0.0000 C   0  0
    5.0000   -6.0064    0.0000 C   0  0
    6.0105   -5.0000    0.0000 C   0  0
    5.2163   -5.2080    0.0000 C   0  0
  2  1  1  0
  3  1  1  0
  4  2  2  0
  5  3  2  0
  6  2  1  0
  7  5  1  0
  8  7  2  0
  9 12  2  0
 10  1  1  0
 11  4  1  0
 12  8  1  0
 13  6  1  0
 14  9  1  0
 15  6  2  0
 16 11  2  0
 17 13  2  0
 18  9  1  0
 19 14  1  0
 20 21  2  0
 21 12  1  0
 22 20  1  0
 23 10  1  0
 24 10  2  0
 25 23  2  0
 26 24  1  0
 27 25  1  0
  5  4  1  0
 27 26  2  0
 17 16  1  0
 22 14  2  0
M  END
> <COMPOUND_ID>
DNDI1417914

$$$$

  SciTegic04051205032D

 26 28  0  0  0  0            999 V2000
    7.2302   -9.8058    0.0000 N   0  0
    7.7236  -10.5458    0.0000 C   0  0
    7.2456  -11.2087    0.0000 N   0  0
    6.4286  -10.1141    0.0000 C   0  0
    6.4286  -10.9260    0.0000 C   0  0
    7.4667   -9.0298    0.0000 C   0  0
    7.5283  -11.9333    0.0000 C   0  0
    8.5612  -10.5458    0.0000 N   0  0
    7.0658   -7.6475    0.0000 C   0  0
    8.0833   -6.6300    0.0000 C   0  0
    7.8623   -7.4162    0.0000 C   0  0
    6.8756   -8.4337    0.0000 C   0  0
    7.4923   -6.0441    0.0000 C   0  0
    6.4902   -7.0616    0.0000 C   0  0
    6.7112   -6.2754    0.0000 C   0  0
    6.9990  -12.5654    0.0000 C   0  0
    7.2662  -13.3310    0.0000 N   0  0
    8.8850   -6.4450    0.0000 Cl  0  0
    7.6619   -5.2475    0.0000 Cl  0  0
    6.0586   -8.6187    0.0000 O   0  0
    5.6886   -9.7441    0.0000 C   0  0
    5.7246  -11.3937    0.0000 C   0  0
    6.7523  -13.9683    0.0000 C   0  0
    8.0473  -13.4544    0.0000 C   0  0
    5.0000  -10.1398    0.0000 C   0  0
    5.0000  -10.9621    0.0000 C   0  0
  2  1  1  0
  3  2  1  0
  4  1  1  0
  5  4  2  0
  6  1  1  0
  7  3  1  0
  8  2  2  0
  9 12  1  0
 10 11  1  0
 11  9  2  0
 12  6  1  0
 13 15  1  0
 14  9  1  0
 15 14  2  0
 16  7  1  0
 17 16  1  0
 18 10  1  0
 19 13  1  0
 20 12  1  0
 21  4  1  0
 22  5  1  0
 23 17  1  0
 24 17  1  0
 25 21  2  0
 26 25  1  0
  5  3  1  0
 22 26  2  0
 13 10  2  0
M  END
> <COMPOUND_ID>
DNDI1417915

$$$$

  SciTegic04051205032D

 29 31  0  0  0  0            999 V2000
   10.5006   -6.3872    0.0000 C   0  0
   12.3353   -7.5940    0.0000 C   0  0
   11.5206   -7.3919    0.0000 N   0  0
   11.2892   -6.5838    0.0000 C   0  0
    9.9205   -6.9759    0.0000 C   0  0
    6.3933   -7.5940    0.0000 C   0  0
    7.2080   -7.7765    0.0000 C   0  0
    8.5518   -7.3593    0.0000 N   0  0
    5.8394   -8.2066    0.0000 C   0  0
   12.5504   -8.3891    0.0000 C   0  0
    9.1253   -6.7663    0.0000 N   0  0
   12.9154   -6.9922    0.0000 O   0  0
   10.1356   -7.7765    0.0000 O   0  0
    7.7599   -7.1769    0.0000 C   0  0
    7.4536   -8.5619    0.0000 C   0  0
   11.9769   -8.9790    0.0000 C   0  0
   13.3455   -8.6043    0.0000 C   0  0
    6.0849   -8.9790    0.0000 C   0  0
   12.9968   -9.9729    0.0000 C   0  0
    6.1435   -6.7988    0.0000 O   0  0
    6.8985   -9.1778    0.0000 C   0  0
   13.5802   -9.3928    0.0000 C   0  0
   12.1951   -9.7579    0.0000 C   0  0
   13.2380  -10.7844    0.0000 F   0  0
   10.2627   -5.5963    0.0000 C   0  0
    5.4950   -9.5754    0.0000 O   0  0
   11.8465   -5.9961    0.0000 C   0  0
   10.8427   -5.0000    0.0000 C   0  0
   11.6118   -5.2150    0.0000 C   0  0
  2  3  1  0
  3  4  1  0
  4  1  1  0
  5  1  1  0
  6  7  2  0
  7 14  1  0
  8 11  1  0
  9  6  1  0
 10  2  1  0
 11  5  1  0
 12  2  2  0
 13  5  2  0
 14  8  2  0
 15  7  1  0
 16 10  2  0
 17 10  1  0
 18 21  1  0
 19 22  1  0
 20  6  1  0
 21 15  2  0
 22 17  2  0
 23 16  1  0
 24 19  1  0
 25  1  2  0
 26 18  1  0
 27  4  2  0
 28 25  1  0
 29 28  2  0
 29 27  1  0
 23 19  2  0
 18  9  2  0
M  END
> <COMPOUND_ID>
DNDI1417916

$$$$

  SciTegic04051205032D

 29 32  0  0  0  0            999 V2000
    7.9395   -6.2604    0.0000 C   0  0
    7.2057   -6.6916    0.0000 C   0  0
    8.7314   -6.5963    0.0000 C   0  0
    6.4926   -6.2604    0.0000 C   0  0
    9.3823   -6.0946    0.0000 N   0  0
    7.9395   -5.4147    0.0000 C   0  0
   10.1410   -6.0448    0.0000 C   0  0
    9.9296  -10.2282    0.0000 C   0  0
    8.8351   -7.4421    0.0000 C   0  0
    5.7463   -6.6916    0.0000 N   0  0
   10.5391   -6.6916    0.0000 N   0  0
    9.1958   -9.9421    0.0000 O   0  0
    6.4926   -5.4147    0.0000 C   0  0
    7.2057   -5.0000    0.0000 C   0  0
    8.1841   -7.9851    0.0000 C   0  0
    9.6269   -7.7530    0.0000 C   0  0
    7.2057   -7.5416    0.0000 O   0  0
    9.0796   -9.1294    0.0000 C   0  0
    9.6311  -11.0200    0.0000 F   0  0
   10.2737   -9.4777    0.0000 F   0  0
    9.7762   -8.5863    0.0000 C   0  0
    8.2878   -8.8309    0.0000 C   0  0
    5.0000   -6.2604    0.0000 C   0  0
   11.2853   -6.6460    0.0000 C   0  0
   10.4893   -5.3981    0.0000 C   0  0
    5.7463   -5.0000    0.0000 C   0  0
    5.0000   -5.4022    0.0000 C   0  0
   11.6667   -5.9951    0.0000 C   0  0
   11.2356   -5.3483    0.0000 C   0  0
  2  1  2  0
  3  1  1  0
  4  2  1  0
  5  3  1  0
  6  1  1  0
  7  5  1  0
  8 12  1  0
  9  3  1  0
 10  4  1  0
 11  7  1  0
 12 18  1  0
 13 14  1  0
 14  6  2  0
 15  9  2  0
 16  9  1  0
 17  2  1  0
 18 21  1  0
 19  8  1  0
 20  8  1  0
 21 16  2  0
 22 15  1  0
 23 10  2  0
 24 11  2  0
 25  7  2  0
 26 13  1  0
 27 26  2  0
 28 29  2  0
 29 25  1  0
 13  4  2  0
 22 18  2  0
 23 27  1  0
 24 28  1  0
M  END
> <COMPOUND_ID>
DNDI1417917

$$$$

  SciTegic04051205032D

 29 32  0  0  0  0            999 V2000
    7.4299   -7.0711    0.0000 C   0  0
    7.8429   -7.7712    0.0000 C   0  0
    7.4299   -8.4742    0.0000 C   0  0
    6.6199   -7.0711    0.0000 C   0  0
    6.6199   -8.4742    0.0000 C   0  0
    8.6543   -7.7712    0.0000 N   0  0
    6.2083   -7.7712    0.0000 C   0  0
   11.1018   -7.7712    0.0000 C   0  0
   10.2904   -7.7712    0.0000 N   0  0
    7.8209   -6.3651    0.0000 N   0  0
   11.4372   -7.0491    0.0000 C   0  0
    7.4167   -5.6767    0.0000 C   0  0
   12.2266   -7.0491    0.0000 O   0  0
    7.8209   -9.1758    0.0000 O   0  0
    6.2259   -6.3651    0.0000 O   0  0
    9.0673   -7.0711    0.0000 C   0  0
    9.0673   -8.4742    0.0000 C   0  0
    9.8773   -8.4742    0.0000 C   0  0
    9.8773   -7.0711    0.0000 C   0  0
   11.5031   -8.4611    0.0000 O   0  0
   11.0329   -6.3651    0.0000 C   0  0
   12.6309   -6.3651    0.0000 C   0  0
   12.2486   -5.6767    0.0000 C   0  0
    6.5891   -5.6767    0.0000 O   0  0
    6.2083   -9.1758    0.0000 C   0  0
    5.3955   -7.7712    0.0000 C   0  0
    7.8034   -5.0000    0.0000 C   0  0
    5.4086   -9.1758    0.0000 C   0  0
    5.0000   -8.4859    0.0000 C   0  0
  2  1  2  0
  3  2  1  0
  4  1  1  0
  5  7  2  0
  6  2  1  0
  7  4  1  0
  8  9  1  0
  9 18  1  0
 10  1  1  0
 11  8  1  0
 12 10  1  0
 13 11  1  0
 14  3  2  0
 15  4  2  0
 16  6  1  0
 17  6  1  0
 18 17  1  0
 19 16  1  0
 20  8  2  0
 21 11  2  0
 22 13  1  0
 23 21  1  0
 24 12  2  0
 25  5  1  0
 26  7  1  0
 27 12  1  0
 28 29  1  0
 29 26  2  0
  5  3  1  0
  9 19  1  0
 25 28  2  0
 22 23  2  0
M  END
> <COMPOUND_ID>
DNDI1417918

$$$$

  SciTegic04051205032D

 29 32  0  0  0  0            999 V2000
    7.4844   -7.3992    0.0000 C   0  0
    7.8716   -8.1121    0.0000 C   0  0
    7.4671   -8.8308    0.0000 C   0  0
    6.6502   -7.3992    0.0000 C   0  0
    6.6502   -8.8308    0.0000 C   0  0
    8.7036   -8.1121    0.0000 N   0  0
    6.2434   -8.1121    0.0000 C   0  0
    7.9028   -6.6815    0.0000 N   0  0
   10.3468   -8.1121    0.0000 N   0  0
    7.4960   -5.9512    0.0000 C   0  0
   11.1614   -8.1121    0.0000 C   0  0
    7.9028   -9.5473    0.0000 O   0  0
    6.2434   -6.6815    0.0000 O   0  0
    9.1114   -8.8308    0.0000 C   0  0
    9.1114   -7.3992    0.0000 C   0  0
    9.9377   -7.3992    0.0000 C   0  0
    9.9377   -8.8308    0.0000 C   0  0
    7.9028   -5.2475    0.0000 O   0  0
   11.5843   -8.8308    0.0000 C   0  0
   11.5693   -7.3992    0.0000 C   0  0
   12.8081   -8.1121    0.0000 C   0  0
   12.3990   -7.3992    0.0000 C   0  0
   12.3990   -8.8308    0.0000 C   0  0
   13.6228   -8.0982    0.0000 F   0  0
    6.2226   -9.5473    0.0000 C   0  0
    5.4079   -8.1121    0.0000 C   0  0
    6.6674   -5.9512    0.0000 C   0  0
    5.4079   -9.5473    0.0000 C   0  0
    5.0000   -8.8308    0.0000 C   0  0
  2  1  2  0
  3  2  1  0
  4  1  1  0
  5  7  2  0
  6  2  1  0
  7  4  1  0
  8  1  1  0
  9 16  1  0
 10  8  1  0
 11  9  1  0
 12  3  2  0
 13  4  2  0
 14  6  1  0
 15  6  1  0
 16 15  1  0
 17 14  1  0
 18 10  2  0
 19 11  2  0
 20 11  1  0
 21 22  1  0
 22 20  2  0
 23 19  1  0
 24 21  1  0
 25  5  1  0
 26  7  1  0
 27 10  1  0
 28 29  1  0
 29 26  2  0
  3  5  1  0
 17  9  1  0
 28 25  2  0
 21 23  2  0
M  END
> <COMPOUND_ID>
DNDI1417919

$$$$

  SciTegic04051205032D

 29 32  0  0  0  0            999 V2000
    8.5706   -6.2371    0.0000 C   0  0
    9.2855   -6.6495    0.0000 C   0  0
   11.4299   -8.7148    0.0000 C   0  0
    9.2855   -7.4743    0.0000 N   0  0
    7.8558   -6.6495    0.0000 C   0  0
   12.1413   -9.1272    0.0000 N   0  0
   11.4299   -7.8867    0.0000 C   0  0
    7.8558   -7.4743    0.0000 N   0  0
    8.5706   -7.8867    0.0000 C   0  0
    7.1376   -6.2371    0.0000 C   0  0
    9.9934   -6.2371    0.0000 O   0  0
   10.7151   -7.4743    0.0000 C   0  0
   10.7151   -9.1272    0.0000 O   0  0
   10.7151   -6.6495    0.0000 C   0  0
   14.3269   -8.7973    0.0000 O   0  0
    6.4262   -6.6495    0.0000 C   0  0
    7.1376   -5.4124    0.0000 C   0  0
   12.8595   -8.7148    0.0000 C   0  0
    5.7114   -5.4124    0.0000 C   0  0
   13.5743   -9.1272    0.0000 C   0  0
    6.4262   -5.0000    0.0000 C   0  0
    5.7114   -6.2371    0.0000 C   0  0
    5.0000   -5.0000    0.0000 F   0  0
   12.1413   -7.4743    0.0000 C   0  0
   12.1413   -6.6495    0.0000 C   0  0
   11.4299   -6.2371    0.0000 C   0  0
   14.8802   -9.4056    0.0000 C   0  0
   13.6568   -9.9520    0.0000 C   0  0
   14.4678  -10.1239    0.0000 C   0  0
  2  1  1  0
  3  7  1  0
  4  2  2  0
  5  1  2  0
  6  3  1  0
  7 12  1  0
  8  5  1  0
  9  8  2  0
 10  5  1  0
 11  2  1  0
 12 14  2  0
 13  3  2  0
 14 11  1  0
 15 20  1  0
 16 10  2  0
 17 10  1  0
 18  6  1  0
 19 21  1  0
 20 18  1  0
 21 17  2  0
 22 16  1  0
 23 19  1  0
 24 25  1  0
 25 26  2  0
 26 14  1  0
 27 15  1  0
 28 20  1  0
 29 28  1  0
  9  4  1  0
 22 19  2  0
 24  7  2  0
 27 29  1  0
M  END
> <COMPOUND_ID>
DNDI1417920

$$$$

  SciTegic04051205032D

 28 31  0  0  0  0            999 V2000
    7.1562  -10.3648    0.0000 N   0  0
    7.8646   -9.9486    0.0000 C   0  0
    7.1562  -11.1833    0.0000 C   0  0
    8.5731  -10.3648    0.0000 C   0  0
    7.8646  -11.5925    0.0000 N   0  0
    6.3687  -11.4446    0.0000 N   0  0
    7.8646   -9.1199    0.0000 S   0  0
    8.5731  -11.1833    0.0000 C   0  0
    6.3687  -10.1034    0.0000 N   0  0
    7.8612   -6.6576    0.0000 C   0  0
    7.8612   -7.4795    0.0000 N   0  0
    5.8838  -10.7740    0.0000 C   0  0
    8.5800   -8.7072    0.0000 C   0  0
    8.5731   -7.8887    0.0000 C   0  0
    7.1424   -6.2346    0.0000 C   0  0
    8.5834   -6.2483    0.0000 O   0  0
    6.4340   -6.6472    0.0000 C   0  0
    9.2883   -9.9521    0.0000 C   0  0
    5.7222   -6.2243    0.0000 C   0  0
    5.0000   -6.6439    0.0000 F   0  0
    9.2918  -11.6028    0.0000 C   0  0
    7.1562   -5.4024    0.0000 C   0  0
    6.4409   -5.0000    0.0000 C   0  0
    9.2918   -9.1199    0.0000 C   0  0
    9.2883   -7.4761    0.0000 C   0  0
    5.7222   -5.3989    0.0000 C   0  0
   10.0105   -7.8853    0.0000 C   0  0
   10.0002   -8.7106    0.0000 C   0  0
  2  1  1  0
  3  1  1  0
  4  2  2  0
  5  3  1  0
  6  3  2  0
  7  2  1  0
  8  5  2  0
  9  1  1  0
 10 11  1  0
 11 14  1  0
 12  9  2  0
 13  7  1  0
 14 13  1  0
 15 10  1  0
 16 10  2  0
 17 15  1  0
 18  4  1  0
 19 17  2  0
 20 19  1  0
 21  8  1  0
 22 15  2  0
 23 22  1  0
 24 13  2  0
 25 14  2  0
 26 23  2  0
 27 28  2  0
 28 24  1  0
 12  6  1  0
  4  8  1  0
 25 27  1  0
 26 19  1  0
M  END
> <COMPOUND_ID>
DNDI1417921

$$$$

  SciTegic04051205032D

 29 32  0  0  0  0            999 V2000
   10.0215   -8.3227    0.0000 C   0  0
   11.4456   -8.3227    0.0000 C   0  0
   10.7336   -8.7349    0.0000 C   0  0
    7.1423   -7.4701    0.0000 N   0  0
   11.4456   -7.4982    0.0000 C   0  0
   10.7336   -7.0798    0.0000 C   0  0
   10.0215   -7.4982    0.0000 C   0  0
    8.5756   -8.3071    0.0000 N   0  0
    6.4396   -7.0579    0.0000 C   0  0
    9.2876   -8.7349    0.0000 C   0  0
   12.1638   -8.7349    0.0000 N   0  0
    7.1423   -8.2977    0.0000 C   0  0
    7.8636   -7.0610    0.0000 C   0  0
    6.4396   -6.2366    0.0000 C   0  0
    7.8636   -8.7193    0.0000 C   0  0
    8.5756   -7.4826    0.0000 C   0  0
   10.7336   -9.5593    0.0000 O   0  0
    7.1516   -5.8431    0.0000 O   0  0
   10.7336   -6.2553    0.0000 C   0  0
   12.1638   -7.0798    0.0000 C   0  0
   11.4456   -5.8244    0.0000 O   0  0
    5.7120   -7.4452    0.0000 C   0  0
   12.8758   -8.3227    0.0000 C   0  0
    5.7307   -5.8150    0.0000 C   0  0
    7.8543   -6.2553    0.0000 C   0  0
   11.4456   -5.0000    0.0000 C   0  0
   12.8758   -7.4982    0.0000 C   0  0
    5.0156   -7.0423    0.0000 C   0  0
    5.0000   -6.2179    0.0000 C   0  0
  2  3  1  0
  3  1  2  0
  4 13  1  0
  5  6  1  0
  6  7  2  0
  7  1  1  0
  8 10  1  0
  9  4  1  0
 10  1  1  0
 11  2  2  0
 12 15  1  0
 13 16  1  0
 14  9  2  0
 15  8  1  0
 16  8  1  0
 17  3  1  0
 18 14  1  0
 19  6  1  0
 20  5  2  0
 21 19  1  0
 22  9  1  0
 23 11  1  0
 24 14  1  0
 25 18  1  0
 26 21  1  0
 27 20  1  0
 28 22  2  0
 29 28  1  0
  5  2  1  0
 12  4  1  0
 27 23  2  0
 29 24  2  0
M  END
> <COMPOUND_ID>
DNDI1417922

$$$$

  SciTegic04051205032D

 27 30  0  0  0  0            999 V2000
    8.0167   -8.6588    0.0000 C   0  0
    6.9506   -9.0344    0.0000 C   0  0
    8.5215   -7.2292    0.0000 C   0  0
    9.4948   -8.3882    0.0000 C   0  0
    8.8284   -8.9496    0.0000 N   0  0
    7.8592   -7.8067    0.0000 N   0  0
    9.3453   -7.5442    0.0000 N   0  0
    6.2600   -9.5069    0.0000 S   0  0
    6.9506   -8.3196    0.0000 N   0  0
    7.4069   -9.1919    0.0000 S   0  0
    5.5452   -8.3196    0.0000 N   0  0
    5.5452   -9.0344    0.0000 C   0  0
   10.1207   -8.6467    0.0000 N   0  0
    8.5013   -6.6315    0.0000 N   0  0
   10.7669   -8.1338    0.0000 C   0  0
    7.7623   -6.2438    0.0000 C   0  0
    5.0000   -9.3615    0.0000 C   0  0
   11.5302   -8.4367    0.0000 C   0  0
    7.0475   -6.6921    0.0000 C   0  0
   10.6579   -7.2777    0.0000 C   0  0
    7.7138   -5.4119    0.0000 C   0  0
   11.3363   -6.7688    0.0000 C   0  0
   12.2086   -7.9198    0.0000 C   0  0
    6.2802   -6.2842    0.0000 C   0  0
    6.9707   -5.0000    0.0000 C   0  0
   12.1076   -7.0838    0.0000 C   0  0
    6.2600   -5.4321    0.0000 C   0  0
  2 10  1  0
  3  6  2  0
  4  5  1  0
  5  1  2  0
  6  1  1  0
  7  3  1  0
  8  2  1  0
  9  2  2  0
 10  1  1  0
 11  9  1  0
 12  8  1  0
 13  4  1  0
 14  3  1  0
 15 13  1  0
 16 14  1  0
 17 12  1  0
 18 15  2  0
 19 16  1  0
 20 15  1  0
 21 16  2  0
 22 20  2  0
 23 18  1  0
 24 19  2  0
 25 21  1  0
 26 22  1  0
 27 25  2  0
  4  7  2  0
 11 12  2  0
 24 27  1  0
 23 26  2  0
M  END
> <COMPOUND_ID>
DNDI1417923

$$$$

  SciTegic04051205032D

 27 30  0  0  0  0            999 V2000
    8.5502   -7.2933    0.0000 N   0  0
    8.5502   -8.1431    0.0000 C   0  0
    8.0214   -6.0848    0.0000 N   0  0
    9.2489   -8.5397    0.0000 N   0  0
    7.8137   -8.5711    0.0000 N   0  0
    7.8451   -6.8779    0.0000 C   0  0
    7.8451   -9.3831    0.0000 C   0  0
    9.2489   -9.3831    0.0000 C   0  0
    8.7957   -6.0029    0.0000 C   0  0
    8.5502   -9.7860    0.0000 N   0  0
    9.1545   -6.7268    0.0000 S   0  0
   10.0043   -9.8238    0.0000 N   0  0
    7.1150   -9.7797    0.0000 N   0  0
    9.1545   -5.2475    0.0000 S   0  0
    6.4288   -9.3517    0.0000 C   0  0
    9.9790  -10.6358    0.0000 C   0  0
    7.0898   -7.2115    0.0000 C   0  0
    9.2489  -11.0638    0.0000 C   0  0
    6.4541   -8.5397    0.0000 C   0  0
   10.7030  -11.0638    0.0000 C   0  0
    5.6987   -9.7294    0.0000 C   0  0
    9.2489  -11.8947    0.0000 C   0  0
    5.0000   -9.3265    0.0000 C   0  0
    5.7554   -8.1179    0.0000 C   0  0
   10.7344  -11.8947    0.0000 C   0  0
    9.9790  -12.2976    0.0000 C   0  0
    5.0378   -8.5019    0.0000 C   0  0
  2  1  1  0
  3  6  2  0
  4  2  1  0
  5  2  2  0
  6  1  1  0
  7  5  1  0
  8  4  2  0
  9 11  1  0
 10  7  2  0
 11  1  1  0
 12  8  1  0
 13  7  1  0
 14  9  2  0
 15 13  1  0
 16 12  1  0
 17  6  1  0
 18 16  2  0
 19 15  2  0
 20 16  1  0
 21 15  1  0
 22 18  1  0
 23 21  2  0
 24 19  1  0
 25 20  2  0
 26 25  1  0
 27 23  1  0
  9  3  1  0
 10  8  1  0
 24 27  2  0
 22 26  2  0
M  END
> <COMPOUND_ID>
DNDI1417924

$$$$

  SciTegic04051205032D

 30 33  0  0  0  0            999 V2000
   12.1481   -7.3907    0.0000 C   0  0
   13.4586   -7.1120    0.0000 N   0  0
   12.9014   -7.7312    0.0000 C   0  0
   12.2375   -6.5720    0.0000 C   0  0
   13.0459   -6.4035    0.0000 C   0  0
    8.5809   -6.1558    0.0000 C   0  0
   11.4360   -7.8035    0.0000 C   0  0
   10.7205   -7.3907    0.0000 N   0  0
    7.8654   -6.5686    0.0000 N   0  0
    9.2929   -6.5686    0.0000 C   0  0
    8.5809   -5.3302    0.0000 O   0  0
   10.0050   -6.1558    0.0000 C   0  0
    9.2929   -7.3907    0.0000 C   0  0
   10.7205   -6.5686    0.0000 C   0  0
   10.0050   -7.8035    0.0000 C   0  0
    7.8654   -7.3907    0.0000 C   0  0
   14.2739   -7.2015    0.0000 C   0  0
    5.7190   -8.6290    0.0000 C   0  0
    7.1465   -7.8035    0.0000 C   0  0
    5.0000   -9.0418    0.0000 F   0  0
    6.4344   -9.0418    0.0000 C   0  0
    5.7190   -7.8035    0.0000 C   0  0
    7.1465   -8.6290    0.0000 C   0  0
    6.4344   -7.3907    0.0000 C   0  0
   11.6837   -5.9597    0.0000 C   0  0
   13.3004   -5.6192    0.0000 C   0  0
   14.7658   -6.5376    0.0000 C   0  0
   12.7466   -5.0000    0.0000 C   0  0
   11.9417   -5.1754    0.0000 C   0  0
   13.0768   -8.5361    0.0000 H   0  0
  2  3  1  0
  3  1  2  0
  4  1  1  0
  5  4  1  0
  6 10  1  0
  7  1  1  0
  8  7  1  0
  9  6  1  0
 10 13  1  0
 11  6  2  0
 12 14  1  0
 13 15  1  0
 14  8  1  0
 15  8  1  0
 16  9  1  0
 17  2  1  0
 18 22  2  0
 19 16  1  0
 20 18  1  0
 21 23  2  0
 22 24  1  0
 23 19  1  0
 24 19  2  0
 25  4  2  0
 26  5  2  0
 27 17  1  0
 28 29  2  0
 29 25  1  0
  5  2  1  0
 10 12  1  0
 26 28  1  0
 18 21  1  0
 30  3  1  0
M  END
> <COMPOUND_ID>
DNDI1417925

$$$$

  SciTegic04051205032D

 27 30  0  0  0  0            999 V2000
    8.6505   -7.8962    0.0000 S   0  0
    6.3335   -7.0002    0.0000 C   0  0
    7.1003   -7.3003    0.0000 C   0  0
    7.7504   -6.7960    0.0000 C   0  0
    8.5338   -7.0753    0.0000 C   0  0
    9.3631   -8.3004    0.0000 C   0  0
    9.3631   -9.1256    0.0000 C   0  0
    6.1335   -6.2001    0.0000 S   0  0
    8.6505   -9.5256    0.0000 N   0  0
    9.1631   -6.5502    0.0000 C   0  0
    5.6376   -7.4503    0.0000 C   0  0
    5.3000   -6.1501    0.0000 C   0  0
    7.2336   -8.1254    0.0000 O   0  0
    5.0000   -6.9460    0.0000 C   0  0
    9.9340   -6.8502    0.0000 C   0  0
    9.0339   -5.7459    0.0000 C   0  0
   10.0840   -9.5464    0.0000 C   0  0
   10.4383   -5.5250    0.0000 C   0  0
   10.5841   -6.3460    0.0000 C   0  0
    9.6632   -5.2250    0.0000 C   0  0
   11.0842   -5.0000    0.0000 F   0  0
   10.0840   -7.8962    0.0000 C   0  0
   10.7841   -8.3004    0.0000 C   0  0
    8.6505  -10.3507    0.0000 C   0  0
   10.7841   -9.1256    0.0000 C   0  0
   10.0840  -10.3507    0.0000 C   0  0
    9.3631  -10.7633    0.0000 C   0  0
  2  3  1  0
  3  4  1  0
  4  5  1  0
  5  1  1  0
  6  1  1  0
  7  6  1  0
  8  2  1  0
  9  7  1  0
 10  5  1  0
 11  2  2  0
 12  8  1  0
 13  3  2  0
 14 11  1  0
 15 10  2  0
 16 10  1  0
 17  7  2  0
 18 20  1  0
 19 15  1  0
 20 16  2  0
 21 18  1  0
 22  6  2  0
 23 22  1  0
 24  9  2  0
 25 23  2  0
 26 17  1  0
 27 26  2  0
 25 17  1  0
 18 19  2  0
 27 24  1  0
 14 12  2  0
M  END
> <COMPOUND_ID>
DNDI1417926

$$$$

  SciTegic04051205032D

 29 31  0  0  0  0            999 V2000
    7.4041  -10.0523    0.0000 N   0  0
    7.6648  -10.8178    0.0000 C   0  0
    7.0193  -11.2937    0.0000 N   0  0
    6.5848  -10.0523    0.0000 C   0  0
    6.3489  -10.8426    0.0000 C   0  0
    8.1655   -6.5393    0.0000 C   0  0
    9.3324   -7.3461    0.0000 C   0  0
    8.9724   -6.6013    0.0000 C   0  0
    7.9048   -9.3820    0.0000 C   0  0
    8.0413   -7.9544    0.0000 C   0  0
    8.8565   -8.0165    0.0000 C   0  0
    7.6938   -7.1972    0.0000 C   0  0
    7.5655   -8.6123    0.0000 C   0  0
    8.4510  -11.1075    0.0000 N   0  0
    7.8551   -5.7696    0.0000 C   0  0
   10.1517   -7.4165    0.0000 C   0  0
    6.7586   -8.5503    0.0000 O   0  0
    9.4523   -5.9144    0.0000 O   0  0
    7.0193  -12.1378    0.0000 C   0  0
    6.0303   -9.4440    0.0000 C   0  0
    5.5338  -11.0082    0.0000 C   0  0
    7.5200   -5.0000    0.0000 C   0  0
    8.6124   -5.4509    0.0000 C   0  0
    7.0855   -6.1048    0.0000 C   0  0
   10.0772   -8.2647    0.0000 C   0  0
   10.9916   -7.4951    0.0000 C   0  0
   10.2220   -6.6013    0.0000 C   0  0
    5.2193   -9.6178    0.0000 C   0  0
    5.0000  -10.4123    0.0000 C   0  0
  2  1  1  0
  3  2  1  0
  4  1  1  0
  5  4  2  0
  6 12  1  0
  7 11  2  0
  8  6  2  0
  9  1  1  0
 10 13  1  0
 11 10  1  0
 12 10  2  0
 13  9  1  0
 14  2  2  0
 15  6  1  0
 16  7  1  0
 17 13  2  0
 18  8  1  0
 19  3  1  0
 20  4  1  0
 21  5  1  0
 22 15  1  0
 23 15  1  0
 24 15  1  0
 25 16  1  0
 26 16  1  0
 27 16  1  0
 28 20  2  0
 29 28  1  0
  5  3  1  0
 21 29  2  0
  7  8  1  0
M  END
> <COMPOUND_ID>
DNDI1417927

$$$$

  SciTegic04051205032D

 29 32  0  0  0  0            999 V2000
    7.9468   -9.9238    0.0000 C   0  0
    7.9385   -9.0955    0.0000 N   0  0
    9.3620   -9.9321    0.0000 C   0  0
    8.6627  -10.3359    0.0000 N   0  0
    8.6461   -8.7002    0.0000 C   0  0
    9.3620   -9.0955    0.0000 C   0  0
    6.5151  -10.7479    0.0000 N   0  0
   10.0862  -10.3359    0.0000 C   0  0
    7.2268   -9.5118    0.0000 C   0  0
    7.9510  -10.7479    0.0000 C   0  0
    8.6461   -7.8968    0.0000 C   0  0
    6.5151   -9.9238    0.0000 C   0  0
    7.2268  -11.1600    0.0000 C   0  0
   10.8187   -9.9321    0.0000 C   0  0
    7.9135   -7.4765    0.0000 C   0  0
    9.3620   -7.4765    0.0000 C   0  0
    5.7991  -11.1600    0.0000 C   0  0
    8.6253   -6.2403    0.0000 C   0  0
    9.3578   -6.6399    0.0000 C   0  0
    7.9135   -6.6399    0.0000 C   0  0
   10.8312   -9.0955    0.0000 O   0  0
   10.0862  -11.1475    0.0000 C   0  0
    8.6128   -5.4162    0.0000 O   0  0
   11.5221  -10.3359    0.0000 C   0  0
    5.0000  -10.9435    0.0000 C   0  0
    5.7908  -11.9841    0.0000 C   0  0
    9.3328   -5.0000    0.0000 C   0  0
   10.7979  -11.5596    0.0000 C   0  0
   11.5096  -11.1475    0.0000 C   0  0
  2  1  1  0
  3  4  1  0
  4  1  1  0
  5  2  2  0
  6  3  1  0
  7 13  1  0
  8  3  1  0
  9  1  1  0
 10  1  1  0
 11  5  1  0
 12  9  1  0
 13 10  1  0
 14  8  2  0
 15 11  1  0
 16 11  2  0
 17  7  1  0
 18 19  2  0
 19 16  1  0
 20 15  2  0
 21 14  1  0
 22  8  1  0
 23 18  1  0
 24 14  1  0
 25 17  1  0
 26 17  1  0
 27 23  1  0
 28 22  2  0
 29 28  1  0
 12  7  1  0
  5  6  1  0
 20 18  1  0
 29 24  2  0
M  END
> <COMPOUND_ID>
DNDI1417928

$$$$

  SciTegic04051205032D

 27 30  0  0  0  0            999 V2000
    6.3448   -7.4853    0.0000 N   0  3
    9.6689   -9.0165    0.0000 C   0  0
    7.1703   -7.5918    0.0000 C   0  0
   10.1793   -8.3419    0.0000 S   0  0
    7.5164   -6.8241    0.0000 S   0  0
   10.1482   -9.6734    0.0000 N   0  0
    6.2071   -6.6510    0.0000 C   0  0
    6.9040   -6.2782    0.0000 C   0  0
   10.9649   -8.6570    0.0000 C   0  0
   10.9516   -9.4204    0.0000 C   0  0
    8.8346   -9.0165    0.0000 C   0  0
    7.5919   -8.3020    0.0000 C   0  0
    8.4085   -8.3020    0.0000 C   0  0
    6.9040   -5.4261    0.0000 C   0  0
   11.6927   -8.2487    0.0000 C   0  0
    5.7989   -8.0890    0.0000 C   0  0
    9.8686  -10.4456    0.0000 C   0  0
    5.4926   -6.2382    0.0000 C   0  0
   11.6573   -9.8819    0.0000 C   0  0
    5.4926   -5.3728    0.0000 C   0  0
   12.4029   -9.4559    0.0000 C   0  0
    6.1717   -5.0000    0.0000 C   0  0
   12.4162   -8.6881    0.0000 C   0  0
    7.6096   -5.0133    0.0000 C   0  0
   11.6927   -7.4321    0.0000 C   0  0
    5.0000   -7.9114    0.0000 C   0  0
    9.0831  -10.5743    0.0000 C   0  0
  2 11  2  0
  3  1  2  0
  4  2  1  0
  5  3  1  0
  6  2  1  0
  7  1  1  0
  8  7  2  0
  9  4  1  0
 10  6  1  0
 11 13  1  0
 12  3  1  0
 13 12  2  0
 14  8  1  0
 15  9  1  0
 16  1  1  0
 17  6  1  0
 18  7  1  0
 19 10  1  0
 20 18  2  0
 21 19  2  0
 22 20  1  0
 23 15  2  0
 24 14  1  0
 25 15  1  0
 26 16  1  0
 27 17  1  0
  5  8  1  0
 14 22  2  0
  9 10  2  0
 23 21  1  0
M  CHG  1   1   1
M  END
> <COMPOUND_ID>
DNDI1417929

$$$$

  SciTegic04051205032D

 28 30  0  0  0  0            999 V2000
    7.4729   -6.6784    0.0000 C   0  0
    7.8694   -8.8364    0.0000 C   0  0
    6.6563   -6.6784    0.0000 C   0  0
    7.8694   -7.3977    0.0000 N   0  0
    7.4534   -8.1170    0.0000 C   0  0
    8.6938   -8.8364    0.0000 C   0  0
    9.9224   -9.5712    0.0000 N   0  0
   11.1627  -10.2749    0.0000 C   0  0
    6.2403   -5.9669    0.0000 C   0  0
    7.8694   -5.9863    0.0000 O   0  0
    9.1098   -9.5556    0.0000 N   0  0
    9.1098   -8.1170    0.0000 O   0  0
   11.5787  -10.9864    0.0000 C   0  0
   10.3462  -10.2749    0.0000 C   0  0
    6.6563   -5.2475    0.0000 Cl  0  0
   11.1627  -11.7058    0.0000 O   0  0
    7.4534   -9.5556    0.0000 C   0  0
    6.2403   -7.3977    0.0000 C   0  0
    6.6330   -8.1170    0.0000 C   0  0
   11.5787   -9.5556    0.0000 C   0  0
    5.4199   -5.9669    0.0000 C   0  0
   12.3992  -10.9864    0.0000 C   0  0
    6.6330   -9.5712    0.0000 C   0  0
    5.4199   -7.3977    0.0000 C   0  0
    6.2209   -8.8364    0.0000 C   0  0
   12.3992   -9.5556    0.0000 C   0  0
    5.0000   -6.6784    0.0000 C   0  0
   12.8191  -10.2749    0.0000 C   0  0
  2  5  2  0
  3  1  1  0
  4  1  1  0
  5  4  1  0
  6  2  1  0
  7 11  1  0
  8 14  1  0
  9  3  1  0
 10  1  2  0
 11  6  1  0
 12  6  2  0
 13  8  2  0
 14  7  2  0
 15  9  1  0
 16 13  1  0
 17  2  1  0
 18  3  2  0
 19  5  1  0
 20  8  1  0
 21  9  2  0
 22 13  1  0
 23 25  1  0
 24 18  1  0
 25 19  2  0
 26 20  2  0
 27 24  2  0
 28 26  1  0
 27 21  1  0
 23 17  2  0
 28 22  2  0
M  END
> <COMPOUND_ID>
DNDI1417930

$$$$

  SciTegic04051205032D

 28 31  0  0  0  0            999 V2000
    8.5910   -6.2660    0.0000 C   0  0
    7.8728   -6.6712    0.0000 C   0  0
    7.1546   -6.2660    0.0000 C   0  0
    9.2954   -6.6712    0.0000 C   0  0
   10.0274   -6.2660    0.0000 C   0  0
    7.8728   -7.4999    0.0000 N   0  0
    7.1546   -7.9234    0.0000 C   0  0
    8.5910   -5.4235    0.0000 C   0  0
    7.1546   -8.7383    0.0000 N   0  0
    7.1546   -5.4373    0.0000 C   0  0
    6.4364   -6.6712    0.0000 C   0  0
   10.7456   -6.6712    0.0000 N   0  0
   10.0274   -5.4235    0.0000 C   0  0
    9.2954   -5.0000    0.0000 C   0  0
    6.4364   -7.4999    0.0000 C   0  0
    9.2954   -7.4999    0.0000 O   0  0
    5.9806   -7.1546    0.0000 F   0  0
    7.8728   -5.0138    0.0000 Cl  0  0
    6.4364   -9.1573    0.0000 C   0  0
    5.7182   -7.9234    0.0000 C   0  0
    5.7182   -5.4373    0.0000 C   0  0
   11.4638   -6.2660    0.0000 C   0  0
    5.7182   -6.2660    0.0000 C   0  0
    6.4364   -5.0138    0.0000 C   0  0
    5.7182   -8.7521    0.0000 C   0  0
   10.7456   -5.0000    0.0000 C   0  0
    5.0000   -7.4999    0.0000 C   0  0
   11.4638   -5.4235    0.0000 C   0  0
  2  1  1  0
  3  2  1  0
  4  1  2  0
  5  4  1  0
  6  2  1  0
  7  6  1  0
  8  1  1  0
  9  7  2  0
 10  3  1  0
 11  3  2  0
 12  5  2  0
 13 14  1  0
 14  8  2  0
 15  7  1  0
 16  4  1  0
 17 11  1  0
 18 10  1  0
 19  9  1  0
 20 15  2  0
 21 23  2  0
 22 12  1  0
 23 11  1  0
 24 10  2  0
 25 20  1  0
 26 13  2  0
 27 20  1  0
 28 26  1  0
  5 13  1  0
 24 21  1  0
 22 28  2  0
 25 19  2  0
M  END
> <COMPOUND_ID>
DNDI1417931

$$$$

  SciTegic04051205032D

 28 30  0  0  0  0            999 V2000
    7.1284   -7.4616    0.0000 N   0  0
    6.4162   -7.0618    0.0000 C   0  0
    7.1367   -8.2863    0.0000 C   0  0
    6.4162   -8.7028    0.0000 C   0  0
    5.7039   -8.2988    0.0000 C   0  0
    5.6997   -7.4741    0.0000 C   0  0
    7.1409  -12.4056    0.0000 C   0  0
    6.4162  -11.1686    0.0000 C   0  0
    6.4162  -11.9933    0.0000 C   0  0
    6.4162   -6.2371    0.0000 N   0  0
    7.1367  -10.7563    0.0000 N   0  0
    6.4162   -9.5275    0.0000 C   0  0
    7.1367  -13.2386    0.0000 C   0  0
    7.1367   -9.9357    0.0000 C   0  0
    5.7122  -10.7563    0.0000 O   0  0
    7.8531   -8.6986    0.0000 C   0  0
    7.8531  -13.6427    0.0000 C   0  0
    7.8531   -9.5233    0.0000 C   0  0
    8.5653  -13.2303    0.0000 Cl  0  0
    5.0000   -8.7111    0.0000 C   0  0
    7.1284   -5.8247    0.0000 C   0  0
    5.6997   -5.8247    0.0000 C   0  0
    6.4162  -13.6552    0.0000 C   0  0
    7.8531  -14.4674    0.0000 C   0  0
    7.1284   -5.0000    0.0000 C   0  0
    5.6997   -5.0000    0.0000 C   0  0
    7.1367  -14.8797    0.0000 C   0  0
    6.4162  -14.4799    0.0000 C   0  0
  2  1  2  0
  3  1  1  0
  4  3  1  0
  5  4  1  0
  6  2  1  0
  7  9  2  0
  8 11  1  0
  9  8  1  0
 10  2  1  0
 11 14  1  0
 12  4  2  0
 13  7  1  0
 14 18  2  0
 15  8  2  0
 16  3  2  0
 17 13  1  0
 18 16  1  0
 19 17  1  0
 20  5  1  0
 21 10  1  0
 22 10  1  0
 23 13  2  0
 24 17  2  0
 25 21  1  0
 26 22  1  0
 27 28  2  0
 28 23  1  0
  5  6  2  0
 14 12  1  0
 27 24  1  0
M  END
> <COMPOUND_ID>
DNDI1417932

$$$$

  SciTegic04051205032D

 28 31  0  0  0  0            999 V2000
    6.4167   -8.3138    0.0000 C   0  0
    7.1387   -8.7263    0.0000 N   0  0
    6.4330   -7.4887    0.0000 N   0  0
    6.4167  -12.4390    0.0000 C   0  0
    7.1387   -9.5567    0.0000 C   0  0
    6.4167   -9.9638    0.0000 C   0  0
    5.7111   -9.5567    0.0000 C   0  0
    7.1359  -12.0237    0.0000 N   0  0
    5.7111   -8.7263    0.0000 C   0  0
    6.4167  -13.2722    0.0000 C   0  0
    7.1359  -11.2014    0.0000 C   0  0
    6.4167  -10.7889    0.0000 C   0  0
    5.7111  -12.0237    0.0000 O   0  0
    5.7111   -7.0734    0.0000 C   0  0
    7.1468   -7.0734    0.0000 C   0  0
    7.1359  -13.6820    0.0000 C   0  0
    7.8470   -9.9638    0.0000 C   0  0
    7.1387  -14.5125    0.0000 C   0  0
    7.8470  -10.7889    0.0000 C   0  0
    7.1387   -6.2511    0.0000 C   0  0
    5.7165   -6.2430    0.0000 C   0  0
    7.8470  -14.9250    0.0000 Cl  0  0
    6.4330   -5.8277    0.0000 C   0  0
    5.0000   -9.9638    0.0000 C   0  0
    5.7111  -13.6820    0.0000 C   0  0
    5.7111  -14.5044    0.0000 C   0  0
    6.4330  -14.9196    0.0000 C   0  0
    6.4330   -5.0000    0.0000 C   0  0
  2  1  2  0
  3  1  1  0
  4  8  1  0
  5  2  1  0
  6  7  1  0
  7  9  2  0
  8 11  1  0
  9  1  1  0
 10  4  1  0
 11 12  1  0
 12  6  2  0
 13  4  2  0
 14  3  1  0
 15  3  1  0
 16 10  1  0
 17  5  2  0
 18 16  2  0
 19 17  1  0
 20 15  1  0
 21 14  1  0
 22 18  1  0
 23 20  1  0
 24  7  1  0
 25 10  2  0
 26 25  1  0
 27 26  2  0
 28 23  1  0
  6  5  1  0
 23 21  1  0
 11 19  2  0
 18 27  1  0
M  END
> <COMPOUND_ID>
DNDI1417933

$$$$

  SciTegic04051205032D

 28 30  0  0  0  0            999 V2000
    7.8630   -8.2981    0.0000 O   0  0
    7.8630   -7.4777    0.0000 C   0  0
    8.5798   -8.7165    0.0000 C   0  0
    8.5798   -7.0675    0.0000 C   0  0
    7.1462   -7.0675    0.0000 C   0  0
   10.7053   -5.8245    0.0000 C   0  0
    9.9968   -6.2430    0.0000 C   0  0
    9.2841   -7.4777    0.0000 C   0  0
    8.5674   -6.2430    0.0000 C   0  0
    9.2759   -5.8245    0.0000 C   0  0
    9.9968   -7.0675    0.0000 C   0  0
    8.5674   -9.5411    0.0000 C   0  0
    7.1462   -6.2430    0.0000 C   0  0
    6.4253   -7.4777    0.0000 C   0  0
    5.7085   -6.2430    0.0000 C   0  0
    6.4253   -5.8245    0.0000 C   0  0
    5.7085   -7.0675    0.0000 C   0  0
    5.0000   -5.8245    0.0000 Cl  0  0
    9.9968   -8.7165    0.0000 N   0  0
    9.2841   -8.2981    0.0000 C   0  0
   10.7053   -5.0000    0.0000 C   0  0
   10.9166   -6.6201    0.0000 C   0  0
   11.4221   -6.2347    0.0000 C   0  0
    7.8465   -9.9471    0.0000 C   0  0
    9.2759   -9.9513    0.0000 C   0  0
    9.2759  -10.7717    0.0000 C   0  0
    7.8465  -10.7717    0.0000 C   0  0
    8.5632  -11.1901    0.0000 C   0  0
  2  1  1  0
  3  1  1  0
  4  2  1  0
  5  2  1  0
  6  7  1  0
  7 11  2  0
  8  4  2  0
  9  4  1  0
 10  9  2  0
 11  8  1  0
 12  3  1  0
 13  5  1  0
 14  5  2  0
 15 17  2  0
 16 13  2  0
 17 14  1  0
 18 15  1  0
 19 20  1  0
 20  3  1  0
 21  6  1  0
 22  6  1  0
 23  6  1  0
 24 12  2  0
 25 12  1  0
 26 25  2  0
 27 24  1  0
 28 26  1  0
 15 16  1  0
  7 10  1  0
 28 27  2  0
M  END
> <COMPOUND_ID>
DNDI1417934

$$$$

  SciTegic04051205032D

 26 28  0  0  0  0            999 V2000
    8.6193   -7.4325    0.0000 C   0  0
    9.0338   -8.1581    0.0000 N   0  0
    9.0040   -6.7058    0.0000 N   0  0
   10.3012   -8.8470    0.0000 C   0  0
    9.8778   -8.1581    0.0000 O   0  0
    7.8002   -7.4325    0.0000 C   0  0
   11.1213   -8.8470    0.0000 N   0  0
    9.8897   -9.5418    0.0000 O   0  0
    9.8032   -5.2475    0.0000 O   0  0
    7.3996   -8.1492    0.0000 C   0  0
    7.3927   -6.7148    0.0000 C   0  0
   11.5328   -9.5508    0.0000 C   0  0
    6.1591   -7.4325    0.0000 C   0  0
   12.3529  -10.9881    0.0000 C   0  0
    6.5616   -6.7148    0.0000 C   0  0
    6.5616   -8.1492    0.0000 C   0  0
   12.7645  -11.6949    0.0000 Cl  0  0
    5.3300   -7.4325    0.0000 Cl  0  0
   11.1213  -10.2665    0.0000 C   0  0
   12.3529   -9.5508    0.0000 C   0  0
   11.5239  -10.9881    0.0000 C   0  0
   12.7645  -10.2754    0.0000 C   0  0
    9.8330   -6.6760    0.0000 C   0  0
    8.5716   -5.9901    0.0000 C   0  0
    8.9861   -5.2774    0.0000 C   0  0
   10.2356   -5.9543    0.0000 C   0  0
  2  1  2  0
  3  1  1  0
  4  5  1  0
  5  2  1  0
  6  1  1  0
  7  4  1  0
  8  4  2  0
  9 25  1  0
 10  6  1  0
 11  6  2  0
 12  7  1  0
 13 15  2  0
 14 22  1  0
 15 11  1  0
 16 10  2  0
 17 14  1  0
 18 13  1  0
 19 12  2  0
 20 12  1  0
 21 19  1  0
 22 20  2  0
 23  3  1  0
 24  3  1  0
 25 24  1  0
 26 23  1  0
 13 16  1  0
  9 26  1  0
 21 14  2  0
M  END
> <COMPOUND_ID>
DNDI1417935

$$$$

  SciTegic04051205032D

 26 28  0  0  0  0            999 V2000
   10.3797   -8.1493    0.0000 C   0  0
    9.9052   -7.4653    0.0000 N   0  0
    9.9052   -8.7856    0.0000 N   0  0
    9.1145   -7.7080    0.0000 C   0  0
    9.1145   -8.5466    0.0000 C   0  0
   11.1888   -8.1714    0.0000 N   0  0
   10.1700   -6.6488    0.0000 C   0  0
    7.2461   -6.4833    0.0000 C   0  0
    6.4334   -6.6488    0.0000 C   0  0
    7.7757   -7.1232    0.0000 C   0  0
    8.5849   -6.9650    0.0000 O   0  0
    7.5109   -7.9066    0.0000 C   0  0
    9.6441   -6.0199    0.0000 C   0  0
    6.1428   -7.4653    0.0000 C   0  0
   10.1700   -9.5947    0.0000 C   0  0
    7.5661   -5.6999    0.0000 Cl  0  0
    8.8497   -6.1817    0.0000 C   0  0
    6.6982   -8.0684    0.0000 C   0  0
    5.3300   -7.5977    0.0000 Cl  0  0
    8.4047   -7.3108    0.0000 C   0  0
    8.4047   -8.9438    0.0000 C   0  0
    9.9052   -5.2475    0.0000 O   0  0
    9.6441  -10.2016    0.0000 C   0  0
    7.6985   -8.5466    0.0000 C   0  0
    7.6985   -7.7080    0.0000 C   0  0
    9.9052  -10.9629    0.0000 C   0  0
  2  1  1  0
  3  1  1  0
  4  2  1  0
  5  3  1  0
  6  1  2  0
  7  2  1  0
  8 10  2  0
  9  8  1  0
 10 11  1  0
 11 17  1  0
 12 10  1  0
 13  7  1  0
 14 18  1  0
 15  3  1  0
 16  8  1  0
 17 13  1  0
 18 12  2  0
 19 14  1  0
 20  4  2  0
 21  5  2  0
 22 13  1  0
 23 15  1  0
 24 21  1  0
 25 20  1  0
 26 23  1  0
  5  4  1  0
 24 25  2  0
 14  9  2  0
M  END
> <COMPOUND_ID>
DNDI1417936

$$$$

  SciTegic04051205032D

 24 27  0  0  0  0            999 V2000
    8.3064   -7.4517    0.0000 C   0  0
    7.0468   -7.0544    0.0000 C   0  0
    6.3571   -6.6195    0.0000 C   0  0
    7.8417   -8.1340    0.0000 N   0  0
    9.1387   -7.4517    0.0000 N   0  0
    9.5286   -8.1715    0.0000 C   0  0
    7.8417   -6.7994    0.0000 S   0  0
    5.0675   -6.4395    0.0000 N   0  0
   10.3609   -8.1715    0.0000 C   0  0
    6.2222   -5.8322    0.0000 S   0  0
    7.0468   -7.8790    0.0000 C   0  0
    5.6374   -7.0094    0.0000 C   0  0
    5.3899   -5.7197    0.0000 C   0  0
   10.7582   -7.4517    0.0000 C   0  0
   10.7882   -8.8538    0.0000 C   0  0
   11.5755   -7.4143    0.0000 C   0  0
    9.1387   -8.8538    0.0000 O   0  0
    6.3571   -8.2690    0.0000 C   0  0
    5.6374   -7.8790    0.0000 C   0  0
   12.0178   -8.1715    0.0000 C   0  0
   10.3609   -6.6720    0.0000 Cl  0  0
   11.6205   -8.8538    0.0000 C   0  0
   12.9175   -8.1790    0.0000 Cl  0  0
    5.0000   -5.0000    0.0000 C   0  0
  2  7  1  0
  3  2  1  0
  4  1  2  0
  5  1  1  0
  6  5  1  0
  7  1  1  0
  8 12  1  0
  9  6  1  0
 10  3  1  0
 11  4  1  0
 12  3  2  0
 13 10  1  0
 14  9  1  0
 15  9  2  0
 16 14  2  0
 17  6  2  0
 18 11  1  0
 19 18  2  0
 20 22  2  0
 21 14  1  0
 22 15  1  0
 23 20  1  0
 24 13  1  0
 11  2  2  0
 19 12  1  0
 13  8  2  0
 16 20  1  0
M  END
> <COMPOUND_ID>
DNDI1417937

$$$$

  SciTegic04051205032D

 25 28  0  0  0  0            999 V2000
    6.7290   -8.3622    0.0000 N   0  0
    7.8023   -7.5687    0.0000 N   0  3
    6.9813   -7.5687    0.0000 C   0  0
    7.4032   -8.8438    0.0000 C   0  0
    6.8849   -9.4906    0.0000 C   0  0
    8.0546   -8.3531    0.0000 C   0  0
    6.0593   -9.3667    0.0000 C   0  0
    8.3160   -6.9220    0.0000 C   0  0
    6.4262   -6.9633    0.0000 S   0  0
    7.1877  -10.2520    0.0000 C   0  0
    5.5502  -10.0135    0.0000 C   0  0
    8.1738   -9.1374    0.0000 O   0  0
    5.9217   -8.5320    0.0000 C   0  0
    9.1279   -7.0550    0.0000 C   0  0
    8.0133   -6.1697    0.0000 C   0  0
    5.8529  -10.7750    0.0000 C   0  0
    5.7657   -8.5870    0.0000 Cl  0  0
    6.6739  -10.8988    0.0000 C   0  0
    8.5225   -5.5229    0.0000 C   0  0
    9.6462   -6.4082    0.0000 C   0  0
    5.3300  -11.4217    0.0000 Cl  0  0
    9.3435   -5.6468    0.0000 C   0  0
    5.3713   -7.9265    0.0000 C   0  0
    5.6190   -7.1422    0.0000 C   0  0
    9.8664   -5.0000    0.0000 C   0  0
  2  3  2  0
  3  1  1  0
  4  1  1  0
  5  4  1  0
  6  4  1  0
  7  5  2  0
  8  2  1  0
  9  3  1  0
 10  5  1  0
 11  7  1  0
 12  4  1  0
 13  1  1  0
 14  8  2  0
 15  8  1  0
 16 18  1  0
 17  7  1  0
 18 10  2  0
 19 15  2  0
 20 14  1  0
 21 16  1  0
 22 19  1  0
 23 13  1  0
 24 23  1  0
 25 22  1  0
  2  6  1  0
 24  9  1  0
 16 11  2  0
 22 20  2  0
M  CHG  1   2   1
M  END
> <COMPOUND_ID>
DNDI1417938

$$$$

  SciTegic04051205032D

 27 28  0  0  0  0            999 V2000
    7.0950   -8.2343    0.0000 S   0  0
    7.0950   -7.4257    0.0000 N   0  0
    7.7974   -7.0214    0.0000 C   0  0
    8.5284   -7.4461    0.0000 C   0  0
    6.4008   -7.0214    0.0000 C   0  0
   12.1547   -8.7080    0.0000 C   0  0
    6.4008   -6.2129    0.0000 C   0  0
    7.7974   -8.6386    0.0000 O   0  0
    7.3073   -9.0184    0.0000 O   0  0
    9.2512   -7.0214    0.0000 N   0  0
   11.4238   -8.2833    0.0000 C   0  0
    8.5284   -8.2833    0.0000 O   0  0
   12.1507   -9.5452    0.0000 O   0  0
   10.6968   -8.6999    0.0000 C   0  0
   11.4279   -7.4461    0.0000 C   0  0
    6.4008   -8.6386    0.0000 C   0  0
    9.9781   -7.4380    0.0000 C   0  0
    5.7024   -5.8086    0.0000 C   0  0
   12.8775   -8.2915    0.0000 O   0  0
   10.7009   -7.0214    0.0000 C   0  0
    9.9781   -8.2833    0.0000 C   0  0
    5.7024   -5.0000    0.0000 F   0  0
    5.7024   -7.4257    0.0000 C   0  0
    5.0000   -7.0214    0.0000 C   0  0
    5.0000   -6.2129    0.0000 C   0  0
   12.8775   -7.4502    0.0000 C   0  0
   13.6126   -7.0296    0.0000 C   0  0
  2  1  1  0
  3  2  1  0
  4  3  1  0
  5  2  1  0
  6 11  1  0
  7  5  2  0
  8  1  2  0
  9  1  2  0
 10  4  1  0
 11 14  2  0
 12  4  2  0
 13  6  2  0
 14 21  1  0
 15 20  2  0
 16  1  1  0
 17 10  1  0
 18  7  1  0
 19  6  1  0
 20 17  1  0
 21 17  2  0
 22 18  1  0
 23  5  1  0
 24 23  2  0
 25 24  1  0
 26 19  1  0
 27 26  1  0
 25 18  2  0
 11 15  1  0
M  END
> <COMPOUND_ID>
DNDI1417939

$$$$

  SciTegic04051205032D

 29 31  0  0  0  0            999 V2000
    8.5977   -7.5050    0.0000 C   0  0
    9.3159   -7.9173    0.0000 C   0  0
    7.8590   -7.9105    0.0000 C   0  0
   10.0169   -7.5084    0.0000 C   0  0
    7.1580   -7.5050    0.0000 C   0  0
    7.8590   -8.7351    0.0000 N   0  0
    7.1408   -9.1406    0.0000 C   0  0
    8.5977   -6.6871    0.0000 C   0  0
    7.1580   -6.6734    0.0000 C   0  0
    6.4535   -6.2645    0.0000 C   0  0
   10.7454   -7.9173    0.0000 N   0  0
    5.7388   -6.6734    0.0000 C   0  0
    6.4398   -7.8967    0.0000 C   0  0
    6.4295   -8.7351    0.0000 O   0  0
   10.0169   -6.6871    0.0000 C   0  0
    9.3125   -6.2782    0.0000 C   0  0
    5.7388   -7.5050    0.0000 C   0  0
    9.3125   -8.7351    0.0000 O   0  0
    7.1408   -9.9584    0.0000 C   0  0
    6.4398   -5.4364    0.0000 O   0  0
    5.0138   -6.2541    0.0000 O   0  0
   11.4567   -7.5050    0.0000 C   0  0
    6.4295  -10.3948    0.0000 C   0  0
   10.7454   -6.2645    0.0000 C   0  0
    7.1545   -5.0000    0.0000 C   0  0
    5.0000   -5.4226    0.0000 C   0  0
    5.7148   -9.9584    0.0000 C   0  0
    6.4295  -11.2229    0.0000 C   0  0
   11.4567   -6.6871    0.0000 C   0  0
  2  1  1  0
  3  1  1  0
  4  2  2  0
  5  3  1  0
  6  3  1  0
  7  6  1  0
  8  1  2  0
  9  5  1  0
 10  9  2  0
 11  4  1  0
 12 17  2  0
 13  5  2  0
 14  7  2  0
 15 16  2  0
 16  8  1  0
 17 13  1  0
 18  2  1  0
 19  7  1  0
 20 10  1  0
 21 12  1  0
 22 11  2  0
 23 19  1  0
 24 15  1  0
 25 20  1  0
 26 21  1  0
 27 23  1  0
 28 23  1  0
 29 24  2  0
 15  4  1  0
 29 22  1  0
 10 12  1  0
M  END
> <COMPOUND_ID>
DNDI1417940

$$$$

  SciTegic04051205032D

 27 30  0  0  0  0            999 V2000
    6.7832   -8.6994    0.0000 S   0  0
    9.5641   -7.9679    0.0000 C   0  0
    8.1716   -8.3295    0.0000 C   0  0
    7.3735   -8.1175    0.0000 N   0  0
    8.7577   -7.7434    0.0000 C   0  0
    6.1971   -9.2731    0.0000 C   0  0
    9.7761   -8.7535    0.0000 C   0  0
    9.1900   -9.3396    0.0000 C   0  0
    8.3919   -9.1276    0.0000 C   0  0
   10.1544   -7.4026    0.0000 N   0  0
    6.3136  -10.0836    0.0000 S   0  0
    7.3610   -9.2773    0.0000 O   0  0
    6.2096   -8.1175    0.0000 O   0  0
    5.3866   -9.1276    0.0000 C   0  0
   10.5783   -8.9489    0.0000 O   0  0
    5.5736  -10.4495    0.0000 C   0  0
    5.0000   -9.8592    0.0000 C   0  0
    9.9631   -6.6087    0.0000 C   0  0
    9.4061  -10.1377    0.0000 C   0  0
    7.8100   -9.7137    0.0000 C   0  0
    9.1692   -6.3675    0.0000 C   0  0
   10.5659   -6.0350    0.0000 C   0  0
    8.8283  -10.7238    0.0000 C   0  0
    8.0220  -10.4993    0.0000 C   0  0
   10.3788   -5.2369    0.0000 C   0  0
    8.9697   -5.5612    0.0000 C   0  0
    9.5807   -5.0000    0.0000 C   0  0
  2  5  2  0
  3  4  2  0
  4  1  1  0
  5  3  1  0
  6  1  1  0
  7  8  1  0
  8  9  2  0
  9  3  1  0
 10  2  1  0
 11  6  1  0
 12  1  2  0
 13  1  2  0
 14  6  2  0
 15  7  2  0
 16 11  1  0
 17 14  1  0
 18 10  1  0
 19  8  1  0
 20  9  1  0
 21 18  1  0
 22 18  2  0
 23 24  1  0
 24 20  2  0
 25 22  1  0
 26 21  2  0
 27 25  2  0
 16 17  2  0
  2  7  1  0
 19 23  2  0
 27 26  1  0
M  END
> <COMPOUND_ID>
DNDI1417941

$$$$

  SciTegic04051205032D

 30 33  0  0  0  0            999 V2000
    7.6971   -7.7545    0.0000 C   0  0
    7.4268   -6.9732    0.0000 N   0  0
    7.0347   -8.2298    0.0000 N   0  0
    8.1140   -6.4881    0.0000 C   0  0
    8.5258   -7.7545    0.0000 N   0  0
    8.7783   -7.0029    0.0000 C   0  0
    6.6100   -6.9732    0.0000 C   0  0
    6.3485   -7.7545    0.0000 C   0  0
    8.1140   -5.6574    0.0000 C   0  0
   10.9973   -7.0683    0.0000 C   0  0
   11.5972   -7.6268    0.0000 N   0  3
    7.0456   -9.0585    0.0000 C   0  0
    9.5982   -6.7624    0.0000 C   0  0
   10.1923   -7.3119    0.0000 S   0  0
    8.8497   -5.2475    0.0000 O   0  0
   11.1785   -6.2574    0.0000 N   0  0
    7.4011   -5.2475    0.0000 O   0  0
    6.0426   -6.3762    0.0000 C   0  0
    7.7744   -9.4773    0.0000 C   0  0
    5.5525   -7.9357    0.0000 C   0  0
    6.6743   -5.6574    0.0000 C   0  0
    7.7744  -10.2734    0.0000 C   0  0
    8.4694   -9.0407    0.0000 C   0  0
    5.2347   -6.5446    0.0000 C   0  0
    5.0000   -7.3446    0.0000 C   0  0
    8.5021  -10.6833    0.0000 C   0  0
    9.1972   -9.5011    0.0000 C   0  0
    9.1972  -10.2823    0.0000 C   0  0
   12.3844   -7.3891    0.0000 H   0  0
   11.4131   -8.4288    0.0000 H   0  0
  2  1  1  0
  3  1  1  0
  4  2  1  0
  5  1  2  0
  6  5  1  0
  7  2  1  0
  8  3  1  0
  9  4  1  0
 10 14  1  0
 11 10  2  0
 12  3  1  0
 13  6  1  0
 14 13  1  0
 15  9  2  0
 16 10  1  0
 17  9  1  0
 18  7  1  0
 19 12  1  0
 20  8  1  0
 21 17  1  0
 22 19  2  0
 23 19  1  0
 24 18  2  0
 25 20  2  0
 26 22  1  0
 27 23  2  0
 28 27  1  0
  6  4  2  0
  7  8  2  0
 24 25  1  0
 26 28  2  0
 29 11  1  0
 30 11  1  0
M  CHG  1  11   1
M  END
> <COMPOUND_ID>
DNDI1417942

$$$$

  SciTegic04051205032D

 28 30  0  0  0  0            999 V2000
    8.0329   -7.1294    0.0000 C   0  0
    6.6120   -7.1294    0.0000 C   0  0
    8.0329   -7.9391    0.0000 C   0  0
    6.6120   -7.9391    0.0000 C   0  0
    7.3318   -8.3740    0.0000 N   0  0
    7.3318   -6.6982    0.0000 C   0  0
    8.7714   -6.6982    0.0000 C   0  0
    5.8922   -6.7545    0.0000 C   0  0
    8.7714   -8.3740    0.0000 S   0  0
    9.4911   -6.2634    0.0000 N   0  0
    5.1650   -6.3759    0.0000 N   0  0
   10.2109   -8.3740    0.0000 C   0  0
   10.9120   -7.9691    0.0000 C   0  0
    9.4911   -7.9691    0.0000 C   0  0
    5.8922   -8.3740    0.0000 N   0  0
   10.1922   -9.2100    0.0000 O   0  0
   11.6318   -8.3553    0.0000 C   0  0
   10.9120   -7.1481    0.0000 C   0  0
    8.0066   -6.2297    0.0000 C   0  0
    6.6046   -6.2297    0.0000 C   0  0
   12.3253   -7.1181    0.0000 C   0  0
   11.6055   -6.7358    0.0000 C   0  0
   12.3365   -7.9504    0.0000 C   0  0
   13.0263   -6.6908    0.0000 O   0  0
   13.7461   -7.0694    0.0000 C   0  0
    6.6046   -5.4312    0.0000 C   0  0
    8.0066   -5.4087    0.0000 C   0  0
    7.3243   -5.0000    0.0000 C   0  0
  2  6  1  0
  3  1  2  0
  4  2  2  0
  5  3  1  0
  6  1  1  0
  7  1  1  0
  8  2  1  0
  9  3  1  0
 10  7  3  0
 11  8  3  0
 12 14  1  0
 13 12  1  0
 14  9  1  0
 15  4  1  0
 16 12  2  0
 17 13  2  0
 18 13  1  0
 19  6  1  0
 20  6  1  0
 21 22  1  0
 22 18  2  0
 23 17  1  0
 24 21  1  0
 25 24  1  0
 26 20  1  0
 27 19  1  0
 28 26  1  0
  4  5  1  0
 27 28  1  0
 21 23  2  0
M  END
> <COMPOUND_ID>
DNDI1417943

$$$$

  SciTegic04051205032D

 28 30  0  0  0  0            999 V2000
    6.6398   -7.7473    0.0000 C   0  0
    7.1141   -7.0166    0.0000 C   0  0
    7.0176   -8.4696    0.0000 C   0  0
    5.7929   -7.7182    0.0000 C   0  0
    7.9590   -7.0643    0.0000 N   0  0
    7.8645   -8.5184    0.0000 N   0  0
    6.6035   -9.1639    0.0000 C   0  0
    5.7555   -9.1453    0.0000 C   0  0
    6.6897   -6.3015    0.0000 S   0  0
    5.3881   -8.4219    0.0000 C   0  0
    5.3788   -6.9854    0.0000 O   0  0
    8.2018   -9.2480    0.0000 C   0  0
    8.4343   -6.3980    0.0000 C   0  0
    9.0010   -9.3373    0.0000 C   0  0
   10.6605   -9.5023    0.0000 C   0  0
    9.4940   -8.6627    0.0000 C   0  0
    9.3508  -10.0887    0.0000 C   0  0
   10.3347   -8.7592    0.0000 C   0  0
   10.1780  -10.1852    0.0000 C   0  0
   11.4711   -9.5864    0.0000 O   0  0
    5.0000   -9.4411    0.0000 C   0  0
    5.9860   -9.9237    0.0000 C   0  0
    9.2418   -6.4945    0.0000 C   0  0
    8.1053   -5.6559    0.0000 C   0  0
   11.8168  -10.3409    0.0000 C   0  0
    8.5869   -5.0000    0.0000 C   0  0
    9.7358   -5.8116    0.0000 C   0  0
    9.4255   -5.1246    0.0000 C   0  0
  2  1  1  0
  3  1  2  0
  4  1  1  0
  5  2  1  0
  6  3  1  0
  7  3  1  0
  8 10  1  0
  9  2  2  0
 10  4  1  0
 11  4  2  0
 12  6  1  0
 13  5  1  0
 14 12  1  0
 15 19  2  0
 16 14  1  0
 17 14  2  0
 18 16  2  0
 19 17  1  0
 20 15  1  0
 21  8  1  0
 22  8  1  0
 23 13  2  0
 24 13  1  0
 25 20  1  0
 26 24  2  0
 27 23  1  0
 28 26  1  0
  7  8  1  0
 15 18  1  0
 28 27  2  0
M  END
> <COMPOUND_ID>
DNDI1417944

$$$$

  SciTegic04051205032D

 28 31  0  0  0  0            999 V2000
    8.5838   -7.9772    0.0000 N   0  0
    7.8756   -7.5640    0.0000 C   0  0
    8.0494   -6.7673    0.0000 N   0  0
    9.2003   -7.4100    0.0000 C   0  0
    8.8560   -6.6820    0.0000 N   0  0
    8.6789   -8.8133    0.0000 C   0  0
    7.1673   -7.9772    0.0000 C   0  0
   11.8627   -6.4165    0.0000 N   0  0
   10.0167   -7.5640    0.0000 S   0  0
    7.1673   -8.8133    0.0000 C   0  0
    6.4460   -7.5640    0.0000 C   0  0
    5.7213   -8.8133    0.0000 C   0  0
    9.4527   -9.1019    0.0000 C   0  0
    5.7213   -7.9772    0.0000 C   0  0
    6.4460   -9.2199    0.0000 C   0  0
   10.5511   -6.9378    0.0000 C   0  0
   11.3447   -7.0657    0.0000 C   0  0
    5.0000   -9.2199    0.0000 O   0  0
   12.6923   -6.5312    0.0000 C   0  0
   11.5611   -5.6590    0.0000 C   0  0
    9.5773   -9.9282    0.0000 C   0  0
   10.1085   -8.6067    0.0000 C   0  0
   13.1972   -5.8951    0.0000 C   0  0
   12.0825   -5.0000    0.0000 C   0  0
   10.8659   -8.9182    0.0000 C   0  0
   10.3446  -10.2298    0.0000 C   0  0
   10.9807   -9.7314    0.0000 C   0  0
   12.8989   -5.1278    0.0000 C   0  0
  2  1  1  0
  3  2  2  0
  4  1  1  0
  5  4  2  0
  6  1  1  0
  7  2  1  0
  8 17  1  0
  9  4  1  0
 10  7  1  0
 11  7  2  0
 12 15  1  0
 13  6  1  0
 14 11  1  0
 15 10  2  0
 16  9  1  0
 17 16  1  0
 18 12  1  0
 19  8  1  0
 20  8  1  0
 21 13  1  0
 22 13  2  0
 23 19  1  0
 24 20  1  0
 25 22  1  0
 26 21  2  0
 27 25  2  0
 28 24  1  0
  5  3  1  0
 12 14  2  0
 27 26  1  0
 28 23  1  0
M  END
> <COMPOUND_ID>
DNDI1417945

$$$$

  SciTegic04051205032D

 29 32  0  0  0  0            999 V2000
    8.5655   -7.8702    0.0000 N   0  0
    6.4311   -9.9683    0.0000 C   0  0
    7.1547   -8.7070    0.0000 N   0  0
    5.7155  -10.3726    0.0000 C   0  0
    6.4149   -9.1315    0.0000 C   0  0
    5.7155  -11.2094    0.0000 C   0  0
    9.2891   -7.4619    0.0000 C   0  0
    8.5655   -8.7070    0.0000 C   0  0
    7.8702   -7.4619    0.0000 C   0  0
   10.7243   -6.6494    0.0000 C   0  0
    7.1547  -10.3928    0.0000 C   0  0
   10.0047   -7.8702    0.0000 C   0  0
    9.2891   -6.6251    0.0000 C   0  0
   10.7243   -7.4457    0.0000 C   0  0
   10.0047   -6.2208    0.0000 C   0  0
    7.8702   -9.1113    0.0000 C   0  0
    7.1547   -7.8864    0.0000 C   0  0
   11.4236   -6.2370    0.0000 C   0  0
    6.4311  -11.6177    0.0000 C   0  0
    7.1547  -11.2094    0.0000 C   0  0
    5.0000   -9.9683    0.0000 O   0  0
    6.4149  -12.4302    0.0000 O   0  0
   12.1391   -6.6494    0.0000 C   0  0
   11.4236   -5.4083    0.0000 C   0  0
    5.0000   -9.1477    0.0000 C   0  0
    5.6993  -12.8345    0.0000 C   0  0
   12.8588   -6.2208    0.0000 C   0  0
   12.1391   -5.0000    0.0000 C   0  0
   12.8588   -5.4245    0.0000 C   0  0
  2  5  1  0
  3 17  1  0
  4  2  1  0
  5  3  1  0
  6  4  2  0
  7  1  1  0
  8  1  1  0
  9  1  1  0
 10 15  1  0
 11  2  2  0
 12  7  1  0
 13  7  1  0
 14 12  1  0
 15 13  1  0
 16  8  1  0
 17  9  1  0
 18 10  1  0
 19 20  2  0
 20 11  1  0
 21  4  1  0
 22 19  1  0
 23 18  2  0
 24 18  1  0
 25 21  1  0
 26 22  1  0
 27 23  1  0
 28 24  2  0
 29 28  1  0
 16  3  1  0
 10 14  1  0
  6 19  1  0
 29 27  2  0
M  END
> <COMPOUND_ID>
DNDI1417946

$$$$

  SciTegic04051205032D

 29 31  0  0  0  0            999 V2000
    6.4426   -6.2256    0.0000 C   0  0
    7.8598   -6.2256    0.0000 C   0  0
    7.1448   -5.8171    0.0000 C   0  0
    7.1576   -7.4555    0.0000 C   0  0
    6.4426   -7.0427    0.0000 C   0  0
    7.8725   -7.0427    0.0000 C   0  0
    7.8598   -8.6939    0.0000 N   0  0
    7.1576   -8.2726    0.0000 C   0  0
    5.7149   -5.7958    0.0000 C   0  0
    8.5875   -5.8171    0.0000 C   0  0
    5.7277   -8.2726    0.0000 N   0  0
    6.4426   -8.6939    0.0000 C   0  0
    8.5747   -8.2726    0.0000 C   0  0
    7.8725   -9.5110    0.0000 C   0  0
    7.1576   -5.0000    0.0000 O   0  0
    9.2769   -8.6811    0.0000 C   0  0
    8.5619   -9.9067    0.0000 C   0  0
    9.3024   -9.4939    0.0000 C   0  0
    9.3024   -5.3873    0.0000 C   0  0
    8.1662   -5.0809    0.0000 C   0  0
    9.0172   -6.5320    0.0000 C   0  0
    6.1575   -5.0809    0.0000 C   0  0
    5.0000   -5.3618    0.0000 C   0  0
    5.2936   -6.5108    0.0000 C   0  0
    5.0340   -8.6811    0.0000 C   0  0
    6.4426   -9.5110    0.0000 C   0  0
   10.0386   -9.9024    0.0000 C   0  0
    5.0340   -9.5110    0.0000 C   0  0
    5.7490   -9.9195    0.0000 C   0  0
  2  3  2  0
  3  1  1  0
  4  5  1  0
  5  1  2  0
  6  4  2  0
  7  8  1  0
  8  4  1  0
  9  1  1  0
 10  2  1  0
 11 12  2  0
 12  8  1  0
 13  7  1  0
 14  7  1  0
 15  3  1  0
 16 13  1  0
 17 14  1  0
 18 17  1  0
 19 10  1  0
 20 10  1  0
 21 10  1  0
 22  9  1  0
 23  9  1  0
 24  9  1  0
 25 11  1  0
 26 12  1  0
 27 18  1  0
 28 29  1  0
 29 26  2  0
  6  2  1  0
 25 28  2  0
 16 18  1  0
M  END
> <COMPOUND_ID>
DNDI1417947

$$$$

  SciTegic04051205032D

 27 30  0  0  0  0            999 V2000
    8.6768   -6.5497    0.0000 C   0  0
    7.3413   -6.5497    0.0000 N   0  0
    8.0049   -6.0697    0.0000 C   0  0
    7.5917   -7.3384    0.0000 N   0  0
    8.4264   -7.3384    0.0000 C   0  0
    9.4656   -6.2993    0.0000 C   0  0
   10.7468   -8.0103    0.0000 C   0  0
   10.0790   -6.8502    0.0000 C   0  0
    9.9831   -7.6765    0.0000 O   0  0
   11.2977   -7.4010    0.0000 C   0  0
   10.8846   -6.6874    0.0000 C   0  0
   10.9179   -8.8242    0.0000 S   0  0
    6.5608   -6.2993    0.0000 C   0  0
    8.0049   -5.2475    0.0000 O   0  0
   11.6984   -9.0746    0.0000 C   0  0
   13.2717   -9.5921    0.0000 C   0  0
   14.0522   -9.8425    0.0000 Cl  0  0
    8.9063   -8.0103    0.0000 C   0  0
   12.3119   -8.5237    0.0000 C   0  0
   11.8695   -9.8801    0.0000 C   0  0
   13.1007   -8.7783    0.0000 C   0  0
   12.6499  -10.1430    0.0000 C   0  0
    6.3898   -5.4980    0.0000 C   0  0
    5.9390   -6.8502    0.0000 C   0  0
    5.6010   -5.2475    0.0000 C   0  0
    5.1586   -6.5872    0.0000 C   0  0
    5.0000   -5.7734    0.0000 C   0  0
  2  3  1  0
  3  1  1  0
  4  5  2  0
  5  1  1  0
  6  1  2  0
  7  9  1  0
  8  6  1  0
  9  8  1  0
 10 11  1  0
 11  8  2  0
 12  7  1  0
 13  2  1  0
 14  3  2  0
 15 12  1  0
 16 22  2  0
 17 16  1  0
 18  5  1  0
 19 15  1  0
 20 15  2  0
 21 19  2  0
 22 20  1  0
 23 13  2  0
 24 13  1  0
 25 23  1  0
 26 24  2  0
 27 26  1  0
  4  2  1  0
 10  7  2  0
 27 25  2  0
 16 21  1  0
M  END
> <COMPOUND_ID>
DNDI1417948

$$$$

  SciTegic04051205032D

 28 31  0  0  0  0            999 V2000
    7.1438   -7.8947    0.0000 C   0  0
    7.8530   -7.4818    0.0000 C   0  0
    8.5703   -7.8864    0.0000 N   0  0
    7.8613   -9.1335    0.0000 N   0  0
    7.1438   -8.7248    0.0000 C   0  0
    8.5745   -8.7206    0.0000 C   0  0
    9.9885   -6.2305    0.0000 N   0  0
    6.4265   -7.4860    0.0000 C   0  0
    7.8488   -6.6518    0.0000 N   0  0
    6.4265   -9.1418    0.0000 C   0  0
    5.7132   -7.8947    0.0000 C   0  0
    9.2961   -9.1252    0.0000 C   0  0
    5.7132   -8.7248    0.0000 C   0  0
    5.0000   -7.4860    0.0000 Cl  0  0
   10.0510   -8.7832    0.0000 C   0  0
    8.5620   -6.2388    0.0000 C   0  0
    9.2752   -6.6434    0.0000 C   0  0
   10.7267   -9.2545    0.0000 C   0  0
   10.7017   -6.6434    0.0000 C   0  0
    9.9843   -5.4089    0.0000 C   0  0
   10.6475  -10.0762    0.0000 C   0  0
   11.4733   -8.9083    0.0000 C   0  0
   11.4108   -6.2388    0.0000 C   0  0
   10.7017   -5.0000    0.0000 C   0  0
   11.3191  -10.5517    0.0000 C   0  0
   12.1449   -9.3880    0.0000 C   0  0
   11.4150   -5.4172    0.0000 C   0  0
   12.0698  -10.2096    0.0000 C   0  0
  2  1  1  0
  3  2  2  0
  4  5  1  0
  5  1  1  0
  6  4  2  0
  7 17  1  0
  8  1  2  0
  9  2  1  0
 10  5  2  0
 11  8  1  0
 12  6  1  0
 13 11  2  0
 14 11  1  0
 15 12  1  0
 16  9  1  0
 17 16  1  0
 18 15  1  0
 19  7  1  0
 20  7  1  0
 21 18  2  0
 22 18  1  0
 23 19  1  0
 24 20  1  0
 25 21  1  0
 26 22  2  0
 27 24  1  0
 28 26  1  0
 13 10  1  0
  6  3  1  0
 27 23  1  0
 28 25  2  0
M  END
> <COMPOUND_ID>
DNDI1417949

$$$$

  SciTegic04051205032D

 23 25  0  0  0  0            999 V2000
    7.8168   -8.4530    0.0000 N   0  0
    7.5623   -7.6689    0.0000 C   0  0
    5.7189  -12.2465    0.0000 C   0  0
    6.7369   -7.6689    0.0000 S   0  0
    6.3929  -12.7280    0.0000 O   0  0
    6.1419  -13.5087    0.0000 C   0  0
    5.7189  -11.4107    0.0000 C   0  0
    5.0551  -12.7349    0.0000 C   0  0
    7.1427   -8.9345    0.0000 C   0  0
    6.4789   -8.4462    0.0000 C   0  0
    5.3130  -13.5019    0.0000 C   0  0
    8.0437   -7.0051    0.0000 C   0  0
    5.0000  -10.9980    0.0000 O   0  0
    6.4308  -10.9980    0.0000 N   0  0
    7.7067   -6.2485    0.0000 C   0  0
    8.8623   -7.0911    0.0000 C   0  0
    6.6371  -14.1759    0.0000 Br  0  0
    7.1427   -9.7599    0.0000 C   0  0
    9.0171   -5.6707    0.0000 C   0  0
    6.4308  -10.1795    0.0000 C   0  0
    8.1917   -5.5812    0.0000 C   0  0
    9.3507   -6.4204    0.0000 C   0  0
    9.5020   -5.0000    0.0000 F   0  0
  2  1  2  0
  3  7  1  0
  4  2  1  0
  5  3  1  0
  6  5  1  0
  7 14  1  0
  8  3  2  0
  9  1  1  0
 10  9  2  0
 11  8  1  0
 12  2  1  0
 13  7  2  0
 14 20  1  0
 15 12  1  0
 16 12  2  0
 17  6  1  0
 18  9  1  0
 19 22  2  0
 20 18  1  0
 21 15  2  0
 22 16  1  0
 23 19  1  0
  4 10  1  0
 21 19  1  0
  6 11  2  0
M  END
> <COMPOUND_ID>
DNDI1417950

$$$$

  SciTegic04051205032D

 25 27  0  0  0  0            999 V2000
    7.8305   -6.2481    0.0000 N   0  0
    9.9956   -6.6474    0.0000 C   0  0
    7.1384   -6.6593    0.0000 C   0  0
    9.9956   -7.4667    0.0000 C   0  0
    8.5492   -6.6593    0.0000 N   0  0
    9.2857   -6.2334    0.0000 C   0  0
    7.1384   -7.4845    0.0000 C   0  0
   10.7024   -7.8808    0.0000 O   0  0
    6.4197   -6.2481    0.0000 C   0  0
    7.8542   -7.8926    0.0000 C   0  0
    6.4197   -7.8926    0.0000 C   0  0
    9.2680   -7.8808    0.0000 O   0  0
    7.1384   -9.1319    0.0000 C   0  0
    6.4197   -8.7178    0.0000 C   0  0
    7.8542   -8.7178    0.0000 C   0  0
    7.1207   -9.9512    0.0000 Br  0  0
   10.7143   -6.2334    0.0000 C   0  0
    9.2857   -5.4082    0.0000 C   0  0
    6.4345   -5.4259    0.0000 C   0  0
    5.7010   -6.6593    0.0000 C   0  0
   10.7143   -5.4082    0.0000 C   0  0
    9.9956   -5.0000    0.0000 C   0  0
    5.7187   -5.0148    0.0000 C   0  0
    5.0000   -6.2481    0.0000 C   0  0
    5.0000   -5.4259    0.0000 C   0  0
  2  6  2  0
  3  1  2  0
  4  2  1  0
  5  1  1  0
  6  5  1  0
  7  3  1  0
  8  4  2  0
  9  3  1  0
 10  7  1  0
 11  7  2  0
 12  4  1  0
 13 14  2  0
 14 11  1  0
 15 10  2  0
 16 13  1  0
 17  2  1  0
 18  6  1  0
 19  9  2  0
 20  9  1  0
 21 22  1  0
 22 18  2  0
 23 19  1  0
 24 20  2  0
 25 24  1  0
 15 13  1  0
 21 17  2  0
 25 23  2  0
M  END
> <COMPOUND_ID>
DNDI1417951

$$$$

  SciTegic04051205032D

 27 30  0  0  0  0            999 V2000
    9.1651   -7.7935    0.0000 C   0  0
    7.7798   -7.7935    0.0000 C   0  0
    7.7798   -8.6101    0.0000 C   0  0
    8.4679   -7.3991    0.0000 C   0  0
    9.1651   -8.6101    0.0000 C   0  0
    8.4679   -8.9954    0.0000 O   0  0
    7.0871   -8.9954    0.0000 C   0  0
    7.0871   -9.8073    0.0000 C   0  0
    8.4679   -6.5963    0.0000 C   0  0
    9.8715   -7.3669    0.0000 C   0  0
    6.3899   -7.7935    0.0000 C   0  0
   10.5962   -6.9450    0.0000 N   0  0
    6.3899  -10.2293    0.0000 C   0  0
    6.3899   -8.6101    0.0000 C   0  0
    9.1559   -6.1972    0.0000 C   0  0
    9.8715   -9.0229    0.0000 N   0  0
    5.6972   -9.8073    0.0000 C   0  0
    9.8440   -6.6009    0.0000 Cl  0  0
    5.6972   -8.9954    0.0000 Cl  0  0
    7.7889   -6.2110    0.0000 C   0  0
    6.3899  -11.0412    0.0000 C   0  0
    9.1422   -5.3899    0.0000 C   0  0
    5.0000  -10.2293    0.0000 C   0  0
    7.7798   -5.4037    0.0000 C   0  0
    5.6972  -11.4403    0.0000 C   0  0
    5.0000  -11.0412    0.0000 C   0  0
    8.4495   -5.0000    0.0000 C   0  0
  2  4  1  0
  3  6  1  0
  4  1  1  0
  5  1  2  0
  6  5  1  0
  7  3  1  0
  8  7  2  0
  9  4  1  0
 10  1  1  0
 11  2  1  0
 12 10  3  0
 13  8  1  0
 14 11  1  0
 15  9  2  0
 16  5  1  0
 17 13  1  0
 18 15  1  0
 19 17  1  0
 20  9  1  0
 21 13  2  0
 22 15  1  0
 23 17  2  0
 24 20  2  0
 25 21  1  0
 26 25  2  0
 27 24  1  0
  2  3  2  0
 14  7  1  0
 22 27  2  0
 23 26  1  0
M  END
> <COMPOUND_ID>
DNDI1417952

$$$$

  SciTegic04051205032D

 29 32  0  0  0  0            999 V2000
    7.8716   -7.1005    0.0000 C   0  0
    7.1506   -7.5339    0.0000 C   0  0
   11.4267   -5.8627    0.0000 C   0  0
    8.5759   -7.5131    0.0000 C   0  0
    6.4254   -7.1005    0.0000 C   0  0
    8.5759   -8.3383    0.0000 N   0  0
    7.8716   -6.2836    0.0000 C   0  0
   10.7223   -6.2836    0.0000 C   0  0
    8.9885   -9.0385    0.0000 C   0  0
    9.2886   -7.1005    0.0000 C   0  0
    5.7210   -7.5339    0.0000 N   0  0
    9.8013   -9.0385    0.0000 N   0  0
    6.4254   -6.2836    0.0000 C   0  0
    7.1381   -5.8627    0.0000 C   0  0
   10.7223   -7.1005    0.0000 C   0  0
    9.9888   -5.8627    0.0000 C   0  0
   10.0013   -7.5131    0.0000 C   0  0
    9.2761   -6.2836    0.0000 C   0  0
   12.0769   -5.4834    0.0000 F   0  0
   12.2269   -6.1628    0.0000 F   0  0
   11.5725   -5.0000    0.0000 F   0  0
    7.1506   -8.3383    0.0000 O   0  0
    5.0000   -7.1130    0.0000 C   0  0
   10.2222   -9.7512    0.0000 C   0  0
    8.5759   -9.7512    0.0000 C   0  0
    5.7210   -5.8835    0.0000 C   0  0
    5.0000   -6.2836    0.0000 C   0  0
    9.8013  -10.4639    0.0000 C   0  0
    8.9760  -10.4639    0.0000 C   0  0
  2  1  2  0
  3  8  1  0
  4  1  1  0
  5  2  1  0
  6  4  1  0
  7  1  1  0
  8 16  1  0
  9  6  1  0
 10  4  1  0
 11  5  2  0
 12  9  1  0
 13 14  1  0
 14  7  2  0
 15 17  1  0
 16 18  2  0
 17 10  2  0
 18 10  1  0
 19  3  1  0
 20  3  1  0
 21  3  1  0
 22  2  1  0
 23 11  1  0
 24 12  2  0
 25  9  2  0
 26 13  2  0
 27 26  1  0
 28 29  2  0
 29 25  1  0
  5 13  1  0
  8 15  2  0
 23 27  2  0
 28 24  1  0
M  END
> <COMPOUND_ID>
DNDI1417953

$$$$

  SciTegic04051205032D

 29 32  0  0  0  0            999 V2000
    6.4336   -9.1255    0.0000 N   0  0
    6.4336   -9.9403    0.0000 C   0  0
    5.6567  -10.1981    0.0000 N   0  0
    7.1590   -8.7026    0.0000 C   0  0
    5.6567   -8.8643    0.0000 N   0  0
    7.1590  -10.3631    0.0000 N   0  0
    5.1856   -9.5243    0.0000 N   0  0
    7.8810   -9.1255    0.0000 C   0  0
    7.8810   -9.9403    0.0000 C   0  0
    7.1590   -7.8672    0.0000 C   0  0
    7.1452   -6.2308    0.0000 C   0  0
    6.4336   -6.6537    0.0000 C   0  0
    7.8672   -6.6399    0.0000 C   0  0
    6.4474   -7.4685    0.0000 C   0  0
    7.8707   -7.4547    0.0000 C   0  0
    8.5926  -10.3631    0.0000 C   0  0
    9.3008   -9.9403    0.0000 C   0  0
    7.1452   -5.4092    0.0000 O   0  0
    8.5788   -6.2205    0.0000 O   0  0
    5.7220   -6.2411    0.0000 O   0  0
   10.0159  -10.3631    0.0000 C   0  0
   10.7275   -9.9506    0.0000 O   0  0
    8.5823  -11.1882    0.0000 C   0  0
    9.3008  -11.6077    0.0000 C   0  0
   10.0159  -11.1882    0.0000 C   0  0
    6.4302   -5.0000    0.0000 C   0  0
    8.5685   -5.3954    0.0000 C   0  0
    5.0000   -6.6434    0.0000 C   0  0
   11.4392  -10.3631    0.0000 C   0  0
  2  1  1  0
  3  2  2  0
  4  1  1  0
  5  1  1  0
  6  2  1  0
  7  5  2  0
  8  4  1  0
  9  8  2  0
 10  4  1  0
 11 13  2  0
 12 14  2  0
 13 15  1  0
 14 10  1  0
 15 10  2  0
 16  9  1  0
 17 16  2  0
 18 11  1  0
 19 13  1  0
 20 12  1  0
 21 17  1  0
 22 21  1  0
 23 16  1  0
 24 23  2  0
 25 24  1  0
 26 18  1  0
 27 19  1  0
 28 20  1  0
 29 22  1  0
  7  3  1  0
  9  6  1  0
 12 11  1  0
 25 21  2  0
M  END
> <COMPOUND_ID>
DNDI1417954

$$$$

  SciTegic04051205032D

 29 32  0  0  0  0            999 V2000
   11.4303   -8.7736    0.0000 C   0  0
   11.5128   -7.9625    0.0000 N   0  0
   12.1830   -9.1138    0.0000 N   0  0
   12.3239   -7.7873    0.0000 N   0  0
   12.7363   -8.5021    0.0000 N   0  0
    8.5777  -10.4233    0.0000 C   0  0
   10.7154   -9.1860    0.0000 N   0  0
    9.2857  -10.0108    0.0000 N   0  0
   10.9045   -7.4058    0.0000 C   0  0
    7.8629  -10.0108    0.0000 N   0  0
    8.5777  -11.2481    0.0000 O   0  0
   10.7154  -10.0108    0.0000 C   0  0
    9.9972   -8.7736    0.0000 C   0  0
    9.2857   -9.1860    0.0000 C   0  0
    9.9972  -10.4233    0.0000 C   0  0
   11.0763   -6.6016    0.0000 C   0  0
    7.1446  -10.4233    0.0000 C   0  0
    5.7183  -11.2481    0.0000 C   0  0
   10.4611   -6.0448    0.0000 C   0  0
    5.0000  -11.6605    0.0000 F   0  0
    6.4331  -10.0108    0.0000 C   0  0
    7.1446  -11.2481    0.0000 C   0  0
    5.7183  -10.4233    0.0000 C   0  0
    6.4331  -11.6605    0.0000 C   0  0
   10.1174   -7.6635    0.0000 C   0  0
    9.5023   -7.1136    0.0000 C   0  0
    9.6775   -6.3026    0.0000 C   0  0
   10.6261   -5.2406    0.0000 C   0  0
   11.4165   -5.0000    0.0000 C   0  0
  2  1  1  0
  3  1  2  0
  4  2  1  0
  5  3  1  0
  6  8  1  0
  7  1  1  0
  8 14  1  0
  9  2  1  0
 10  6  1  0
 11  6  2  0
 12  7  1  0
 13  7  1  0
 14 13  1  0
 15 12  1  0
 16  9  2  0
 17 10  1  0
 18 24  1  0
 19 16  1  0
 20 18  1  0
 21 17  2  0
 22 17  1  0
 23 21  1  0
 24 22  2  0
 25  9  1  0
 26 25  2  0
 27 26  1  0
 28 19  1  0
 29 28  1  0
  4  5  2  0
  8 15  1  0
 27 19  2  0
 23 18  2  0
M  END
> <COMPOUND_ID>
DNDI1417955

$$$$

  SciTegic04051205032D

 29 32  0  0  0  0            999 V2000
    6.4165  -12.4381    0.0000 C   0  0
    6.4165   -8.3134    0.0000 C   0  0
    7.1384   -8.7258    0.0000 N   0  0
    6.4165  -13.2712    0.0000 C   0  0
    6.4328   -7.4884    0.0000 N   0  0
    7.1384   -9.5562    0.0000 C   0  0
    6.4165   -9.9633    0.0000 C   0  0
    7.1357  -12.0229    0.0000 N   0  0
    5.7110   -9.5562    0.0000 C   0  0
    5.7110   -8.7258    0.0000 C   0  0
    5.7083  -12.0229    0.0000 O   0  0
    5.7164  -13.6891    0.0000 C   0  0
    7.1384  -13.6728    0.0000 C   0  0
    7.1357  -11.2007    0.0000 C   0  0
    6.4165  -10.7882    0.0000 C   0  0
    5.7110   -7.0732    0.0000 C   0  0
    7.1465   -7.0732    0.0000 C   0  0
    7.8466   -9.9633    0.0000 C   0  0
    7.8466  -10.7882    0.0000 C   0  0
    7.8466  -13.2495    0.0000 F   0  0
    5.0000  -13.2821    0.0000 F   0  0
    7.1384   -6.2510    0.0000 C   0  0
    5.7164   -6.2429    0.0000 C   0  0
    6.4328   -5.8277    0.0000 C   0  0
    5.0000   -9.9633    0.0000 C   0  0
    6.4409  -14.9184    0.0000 C   0  0
    7.1465  -14.4951    0.0000 C   0  0
    5.7164  -14.5114    0.0000 C   0  0
    6.4328   -5.0000    0.0000 C   0  0
  2  3  2  0
  3  6  1  0
  4  1  1  0
  5  2  1  0
  6 18  2  0
  7 15  2  0
  8  1  1  0
  9  7  1  0
 10  9  2  0
 11  1  2  0
 12  4  2  0
 13  4  1  0
 14  8  1  0
 15 14  1  0
 16  5  1  0
 17  5  1  0
 18 19  1  0
 19 14  2  0
 20 13  1  0
 21 12  1  0
 22 17  1  0
 23 16  1  0
 24 22  1  0
 25  9  1  0
 26 27  1  0
 27 13  2  0
 28 12  1  0
 29 24  1  0
 28 26  2  0
  7  6  1  0
  2 10  1  0
 24 23  1  0
M  END
> <COMPOUND_ID>
DNDI1417956

$$$$

  SciTegic04051205032D

 29 32  0  0  0  0            999 V2000
    6.2736   -7.0546    0.0000 N   0  0
    7.0879   -5.8269    0.0000 C   0  0
    6.3655   -6.2361    0.0000 C   0  0
    7.8020   -6.2403    0.0000 N   0  0
    5.4593   -7.2258    0.0000 C   0  0
    9.1801   -7.1423    0.0000 N   0  0
    5.6097   -5.8895    0.0000 C   0  0
    6.8792   -7.6141    0.0000 C   0  0
    9.8608   -7.5933    0.0000 C   0  0
    7.0921   -5.0000    0.0000 O   0  0
    5.0501   -6.5034    0.0000 C   0  0
    8.5328   -5.8728    0.0000 C   0  0
    7.7561   -7.0629    0.0000 C   0  0
    9.2218   -6.3154    0.0000 C   0  0
    8.4409   -7.5181    0.0000 C   0  0
    5.0000   -7.9148    0.0000 O   0  0
    9.8190   -8.4201    0.0000 C   0  0
   10.5999   -7.2174    0.0000 C   0  0
    6.8541   -8.4326    0.0000 C   0  0
   11.2471   -8.5036    0.0000 C   0  0
   11.2889   -7.6684    0.0000 C   0  0
   10.5080   -8.8711    0.0000 C   0  0
    6.7998  -10.0738    0.0000 C   0  0
   11.9612   -8.9170    0.0000 F   0  0
    7.5431   -8.8669    0.0000 C   0  0
    6.1275   -8.8210    0.0000 C   0  0
    6.1024   -9.6436    0.0000 C   0  0
    7.5264   -9.6854    0.0000 C   0  0
    6.7747  -10.9006    0.0000 C   0  0
  2  3  1  0
  3  1  1  0
  4  2  1  0
  5  1  1  0
  6 15  1  0
  7  3  1  0
  8  1  1  0
  9  6  1  0
 10  2  2  0
 11  5  1  0
 12  4  1  0
 13  4  1  0
 14 12  1  0
 15 13  1  0
 16  5  2  0
 17  9  2  0
 18  9  1  0
 19  8  1  0
 20 21  1  0
 21 18  2  0
 22 17  1  0
 23 27  2  0
 24 20  1  0
 25 19  1  0
 26 19  2  0
 27 26  1  0
 28 25  2  0
 29 23  1  0
  7 11  1  0
 23 28  1  0
  6 14  1  0
 22 20  2  0
M  END
> <COMPOUND_ID>
DNDI1417957

$$$$

  SciTegic04051205032D

 28 31  0  0  0  0            999 V2000
    7.1004  -10.3523    0.0000 N   0  0
    7.1004  -11.1738    0.0000 C   0  0
    7.8120   -9.9295    0.0000 C   0  0
    6.3097  -11.4317    0.0000 N   0  0
    6.3097  -10.0910    0.0000 N   0  0
    7.8120  -11.5864    0.0000 N   0  0
    8.5236  -10.3385    0.0000 C   0  0
    5.8250  -10.7579    0.0000 C   0  0
    7.8120   -9.1044    0.0000 S   0  0
    7.8085   -6.6431    0.0000 C   0  0
    7.8085   -7.4681    0.0000 N   0  0
    8.5236  -11.1738    0.0000 C   0  0
    8.5236   -8.6885    0.0000 C   0  0
    8.5236   -7.8703    0.0000 C   0  0
    8.5167   -6.2237    0.0000 O   0  0
    7.0866   -6.2340    0.0000 C   0  0
    5.0000  -10.7579    0.0000 C   0  0
    9.3177  -11.4248    0.0000 C   0  0
    9.2317   -7.4578    0.0000 C   0  0
    9.2317   -9.1044    0.0000 C   0  0
    7.0866   -5.4090    0.0000 C   0  0
    6.3785   -6.6500    0.0000 C   0  0
    9.4895  -12.2326    0.0000 C   0  0
    9.9433   -8.6919    0.0000 C   0  0
    9.9536   -7.8703    0.0000 C   0  0
    5.6635   -6.2340    0.0000 C   0  0
    6.3785   -5.0000    0.0000 C   0  0
    5.6635   -5.4090    0.0000 C   0  0
  2  1  1  0
  3  1  1  0
  4  2  2  0
  5  1  1  0
  6  2  1  0
  7  3  2  0
  8  5  2  0
  9  3  1  0
 10 11  1  0
 11 14  1  0
 12  7  1  0
 13  9  1  0
 14 13  1  0
 15 10  2  0
 16 10  1  0
 17  8  1  0
 18 12  1  0
 19 14  2  0
 20 13  2  0
 21 16  1  0
 22 16  1  0
 23 18  1  0
 24 20  1  0
 25 24  2  0
 26 22  1  0
 27 21  1  0
 28 26  1  0
  8  4  1  0
  6 12  2  0
 19 25  1  0
 27 28  1  0
M  END
> <COMPOUND_ID>
DNDI1417958

$$$$

  SciTegic04051205032D

 27 30  0  0  0  0            999 V2000
    6.3739   -7.4670    0.0000 N   0  3
    9.6584   -9.0772    0.0000 C   0  0
    7.2011   -7.6393    0.0000 C   0  0
   10.1902   -9.7420    0.0000 N   0  0
   10.2148   -8.4125    0.0000 S   0  0
    8.8754   -9.0772    0.0000 C   0  0
    7.5311   -6.8564    0.0000 S   0  0
    7.6000   -8.3484    0.0000 C   0  0
    6.2557   -6.6791    0.0000 C   0  0
   10.9879   -9.4761    0.0000 C   0  0
    6.9254   -6.3246    0.0000 C   0  0
    8.4470   -8.3484    0.0000 C   0  0
   10.9879   -8.7030    0.0000 C   0  0
    5.7682   -7.9988    0.0000 C   0  0
    9.9390  -10.5102    0.0000 C   0  0
    8.8557   -7.6393    0.0000 O   0  0
    5.5072   -6.2802    0.0000 C   0  0
   11.6773   -9.9193    0.0000 C   0  0
   11.6970   -8.3091    0.0000 C   0  0
    6.9254   -5.4579    0.0000 C   0  0
    9.6584   -7.6393    0.0000 C   0  0
    5.0000   -7.7575    0.0000 C   0  0
    9.1511  -10.6727    0.0000 C   0  0
   12.4602   -9.5302    0.0000 C   0  0
    5.5072   -5.3791    0.0000 C   0  0
    6.1720   -5.0000    0.0000 C   0  0
   12.4209   -8.7375    0.0000 C   0  0
  2  6  2  0
  3  1  2  0
  4  2  1  0
  5  2  1  0
  6 12  1  0
  7  3  1  0
  8  3  1  0
  9  1  1  0
 10  4  1  0
 11  9  2  0
 12  8  2  0
 13  5  1  0
 14  1  1  0
 15  4  1  0
 16 12  1  0
 17  9  1  0
 18 10  1  0
 19 13  1  0
 20 11  1  0
 21 16  1  0
 22 14  1  0
 23 15  1  0
 24 18  2  0
 25 17  2  0
 26 25  1  0
 27 19  2  0
 11  7  1  0
 20 26  2  0
 10 13  2  0
 24 27  1  0
M  CHG  1   1   1
M  END
> <COMPOUND_ID>
DNDI1417959

$$$$

  SciTegic04051205032D

 29 31  0  0  0  0            999 V2000
    8.7884   -7.9013    0.0000 C   0  0
    8.7884   -6.4499    0.0000 C   0  0
    7.5639   -7.1620    0.0000 C   0  0
    9.2199   -7.1853    0.0000 C   0  0
    6.6823   -7.1620    0.0000 C   0  0
    7.9744   -7.8944    0.0000 C   0  0
    8.0048   -6.4499    0.0000 C   0  0
    6.2952   -7.8570    0.0000 C   0  0
    6.2563   -6.4180    0.0000 N   0  0
    9.2292   -5.7324    0.0000 C   0  0
    9.1616   -8.6173    0.0000 C   0  0
    5.4781   -7.8570    0.0000 C   0  0
   10.0502   -7.1853    0.0000 O   0  0
    5.0731   -7.1480    0.0000 O   0  0
    6.6917   -8.5660    0.0000 C   0  0
    6.6613   -5.7020    0.0000 C   0  0
    5.4229   -6.4180    0.0000 C   0  0
    9.6467   -5.0233    0.0000 C   0  0
    9.9452   -6.1638    0.0000 C   0  0
    8.5109   -5.3234    0.0000 C   0  0
    8.4362   -9.0068    0.0000 C   0  0
    9.8916   -8.2372    0.0000 C   0  0
    9.5417   -9.3427    0.0000 C   0  0
    5.0591   -8.5660    0.0000 C   0  0
    6.2719   -9.2681    0.0000 C   0  0
    5.0000   -5.7324    0.0000 C   0  0
    6.2563   -5.0000    0.0000 C   0  0
    5.4851   -9.2681    0.0000 C   0  0
    5.4229   -5.0000    0.0000 C   0  0
  2  4  2  0
  3  6  1  0
  4  1  1  0
  5  3  1  0
  6  1  2  0
  7  3  2  0
  8  5  1  0
  9  5  1  0
 10  2  1  0
 11  1  1  0
 12  8  2  0
 13  4  1  0
 14 12  1  0
 15  8  1  0
 16  9  1  0
 17  9  1  0
 18 10  1  0
 19 10  1  0
 20 10  1  0
 21 11  1  0
 22 11  1  0
 23 11  1  0
 24 12  1  0
 25 15  2  0
 26 17  1  0
 27 16  1  0
 28 25  1  0
 29 26  1  0
  2  7  1  0
 27 29  1  0
 28 24  2  0
M  END
> <COMPOUND_ID>
DNDI1417960

$$$$

  SciTegic04051205032D

 29 31  0  0  0  0            999 V2000
    8.4815  -10.1330    0.0000 N   0  0
    7.0789  -10.1330    0.0000 C   0  0
    7.0914   -6.9088    0.0000 C   0  0
    7.0914   -9.3197    0.0000 O   0  0
    6.3943   -6.5104    0.0000 C   0  0
    7.7885   -6.5104    0.0000 C   0  0
    7.0914   -7.7180    0.0000 O   0  0
    7.7885   -8.9213    0.0000 C   0  0
    8.4857   -9.3197    0.0000 C   0  0
    7.7885   -5.6971    0.0000 C   0  0
    5.6971   -6.9088    0.0000 C   0  0
    6.3943   -5.6971    0.0000 C   0  0
    8.4857   -6.9088    0.0000 C   0  0
    9.1786  -10.5314    0.0000 C   0  0
    7.7885   -8.1163    0.0000 C   0  0
    6.2780  -10.1289    0.0000 C   0  0
    7.0789  -10.9380    0.0000 C   0  0
    5.0000   -5.6971    0.0000 C   0  0
    9.1828   -5.6971    0.0000 C   0  0
    5.0000   -6.5104    0.0000 C   0  0
    5.6971   -5.2987    0.0000 C   0  0
    9.1828   -6.5104    0.0000 C   0  0
    8.4815   -5.2987    0.0000 C   0  0
    7.3777   -5.0000    0.0000 C   0  0
    6.7926   -5.0000    0.0000 C   0  0
    8.4857   -7.7180    0.0000 C   0  0
    5.6971   -7.7180    0.0000 C   0  0
    9.1703  -11.3364    0.0000 C   0  0
    9.8675  -10.1330    0.0000 C   0  0
  2  1  1  0
  3  7  1  0
  4  2  1  0
  5  3  1  0
  6  3  1  0
  7 15  1  0
  8  9  1  0
  9  1  1  0
 10  6  1  0
 11  5  2  0
 12  5  1  0
 13  6  2  0
 14  1  1  0
 15  8  1  0
 16  2  1  0
 17  2  1  0
 18 21  1  0
 19 23  1  0
 20 11  1  0
 21 12  2  0
 22 13  1  0
 23 10  2  0
 24 10  1  0
 25 12  1  0
 26 13  1  0
 27 11  1  0
 28 14  1  0
 29 14  1  0
  4  8  1  0
 18 20  2  0
 19 22  2  0
M  END
> <COMPOUND_ID>
DNDI1417961

$$$$

  SciTegic04051205032D

 29 31  0  0  0  0            999 V2000
    7.1263   -7.4648    0.0000 N   0  0
    6.4160   -7.0644    0.0000 C   0  0
    6.4160  -11.1716    0.0000 C   0  0
    7.1335   -8.2897    0.0000 C   0  0
    6.4160   -8.7044    0.0000 C   0  0
    5.7008   -8.3016    0.0000 C   0  0
    7.1335  -10.7616    0.0000 N   0  0
    5.7008   -7.4791    0.0000 C   0  0
    6.4160   -6.2420    0.0000 N   0  0
    6.4303  -12.0036    0.0000 C   0  0
    7.1335   -9.9392    0.0000 C   0  0
    6.4160   -9.5316    0.0000 C   0  0
    6.4017  -14.4827    0.0000 C   0  0
    5.7008  -10.7616    0.0000 O   0  0
    6.4017  -13.6531    0.0000 C   0  0
    7.8486   -8.7020    0.0000 C   0  0
    7.1263  -12.4184    0.0000 C   0  0
    5.7104  -12.4112    0.0000 C   0  0
    5.7008  -13.2312    0.0000 C   0  0
    7.1263  -13.2455    0.0000 C   0  0
    7.8486   -9.5268    0.0000 C   0  0
    5.0000   -8.7163    0.0000 C   0  0
    7.1263   -5.8272    0.0000 C   0  0
    5.7008   -5.8272    0.0000 C   0  0
    6.4017  -15.3194    0.0000 C   0  0
    7.2336  -14.4922    0.0000 C   0  0
    5.5721  -14.4779    0.0000 C   0  0
    5.7008   -5.0000    0.0000 C   0  0
    7.1263   -5.0000    0.0000 C   0  0
  2  1  2  0
  3  7  1  0
  4  1  1  0
  5  4  1  0
  6  5  1  0
  7 11  1  0
  8  2  1  0
  9  2  1  0
 10  3  1  0
 11 21  2  0
 12  5  2  0
 13 15  1  0
 14  3  2  0
 15 19  1  0
 16  4  2  0
 17 10  1  0
 18 10  1  0
 19 18  1  0
 20 17  1  0
 21 16  1  0
 22  6  1  0
 23  9  1  0
 24  9  1  0
 25 13  1  0
 26 13  1  0
 27 13  1  0
 28 24  1  0
 29 23  1  0
  8  6  2  0
 12 11  1  0
 20 15  1  0
M  END
> <COMPOUND_ID>
DNDI1417962

$$$$

  SciTegic04051205032D

 28 30  0  0  0  0            999 V2000
   13.8459   -6.6957    0.0000 C   0  0
   13.8459   -7.5167    0.0000 C   0  0
   12.4574   -6.6675    0.0000 N   0  0
    8.8609   -6.2503    0.0000 C   0  0
   14.5864   -6.2906    0.0000 C   0  0
   11.0207   -6.6675    0.0000 C   0  0
    8.1498   -6.6675    0.0000 N   0  0
   13.1577   -6.2650    0.0000 C   0  0
    7.4388   -6.2503    0.0000 C   0  0
   11.7370   -6.2503    0.0000 N   0  0
    6.7184   -6.6675    0.0000 C   0  0
   14.5461   -7.9393    0.0000 C   0  0
    8.8716   -5.4119    0.0000 O   0  0
   11.0287   -7.4563    0.0000 O   0  0
   15.2867   -6.7158    0.0000 C   0  0
   15.2665   -7.5449    0.0000 C   0  0
    5.9900   -6.2450    0.0000 C   0  0
    9.5799   -6.6675    0.0000 C   0  0
   10.3003   -6.2503    0.0000 C   0  0
   14.5945   -5.5031    0.0000 O   0  0
    5.3300   -6.7279    0.0000 Cl  0  0
   13.1295   -7.8990    0.0000 C   0  0
    6.7184   -5.0000    0.0000 C   0  0
    7.4496   -5.4119    0.0000 C   0  0
    5.9900   -5.4119    0.0000 C   0  0
   14.5381   -8.7562    0.0000 C   0  0
   13.1094   -8.7362    0.0000 C   0  0
   13.8177   -9.1587    0.0000 C   0  0
  2  1  1  0
  3  8  2  0
  4 18  1  0
  5  1  2  0
  6 10  1  0
  7  4  1  0
  8  1  1  0
  9  7  1  0
 10  3  1  0
 11  9  1  0
 12  2  2  0
 13  4  2  0
 14  6  2  0
 15  5  1  0
 16 15  2  0
 17 11  2  0
 18 19  1  0
 19  6  1  0
 20  5  1  0
 21 17  1  0
 22  2  1  0
 23 24  1  0
 24  9  2  0
 25 23  2  0
 26 12  1  0
 27 22  2  0
 28 27  1  0
 16 12  1  0
 26 28  2  0
 17 25  1  0
M  END
> <COMPOUND_ID>
DNDI1417963

$$$$

  SciTegic04051205032D

 26 28  0  0  0  0            999 V2000
    8.2823   -7.5296    0.0000 C   0  0
    8.8185   -8.1516    0.0000 O   0  0
    6.9454   -6.9728    0.0000 N   0  0
    7.1825   -6.1857    0.0000 C   0  0
    8.7085   -6.8147    0.0000 N   0  0
    9.5849   -7.8217    0.0000 C   0  0
    9.5058   -7.0003    0.0000 N   0  0
    7.4609   -7.6361    0.0000 C   0  0  1  0  0  0
    6.6016   -5.5912    0.0000 O   0  0
    7.9661   -5.9830    0.0000 O   0  0
   10.2998   -8.2341    0.0000 S   0  0
    5.8009   -5.7974    0.0000 C   0  0
    6.1720   -7.2649    0.0000 C   0  0
   11.0181   -7.8286    0.0000 C   0  0
   12.4444   -7.8286    0.0000 C   0  0
   13.1558   -8.2341    0.0000 C   0  0
   11.7296   -8.2341    0.0000 C   0  0
   13.8708   -7.8286    0.0000 Cl  0  0
    6.9969   -8.3235    0.0000 C   0  0
    6.2098   -8.0898    0.0000 C   0  0
   12.4444   -9.4714    0.0000 C   0  0
    5.5912   -5.0000    0.0000 C   0  0
    6.0071   -6.5982    0.0000 C   0  0
    5.0000   -6.0036    0.0000 C   0  0
   13.1558   -9.0590    0.0000 C   0  0
   11.7296   -9.0590    0.0000 C   0  0
  2  1  1  0
  8  3  1  6
  4  3  1  0
  5  1  2  0
  6  2  1  0
  7  5  1  0
  8  1  1  0
  9  4  1  0
 10  4  2  0
 11  6  1  0
 12  9  1  0
 13  3  1  0
 14 11  1  0
 15 17  2  0
 16 15  1  0
 17 14  1  0
 18 16  1  0
 19  8  1  0
 20 19  1  0
 21 26  2  0
 22 12  1  0
 23 12  1  0
 24 12  1  0
 25 21  1  0
 26 17  1  0
  6  7  2  0
 13 20  1  0
 16 25  2  0
M  END
> <COMPOUND_ID>
DNDI1417964

$$$$

  SciTegic04051205032D

 21 22  0  0  0  0            999 V2000
   10.7982   -8.1047    0.0000 C   0  0
    9.9641   -8.1047    0.0000 C   0  0
    7.0678   -5.9743    0.0000 C   0  0
    8.7192   -7.3946    0.0000 N   0  0
    7.4820   -6.6811    0.0000 C   0  0
   11.2068   -8.8181    0.0000 C   0  0
    9.5555   -7.3946    0.0000 N   0  0
    9.5555   -8.8181    0.0000 O   0  0
    6.2449   -5.9743    0.0000 C   0  0
    8.2994   -6.6811    0.0000 C   0  0
    7.4820   -5.2475    0.0000 O   0  0
   10.7848   -9.5450    0.0000 I   0  0
   11.2068   -7.3946    0.0000 C   0  0
    5.8196   -5.2609    0.0000 O   0  0
    7.0544   -7.3946    0.0000 C   0  0
    6.2282   -7.3946    0.0000 C   0  0
    5.8307   -6.6811    0.0000 C   0  0
   12.0241   -8.8181    0.0000 C   0  0
    5.0000   -5.2776    0.0000 C   0  0
   12.0409   -7.3946    0.0000 C   0  0
   12.4361   -8.1047    0.0000 C   0  0
  2  1  1  0
  3  5  2  0
  4  7  1  0
  5 10  1  0
  6  1  2  0
  7  2  1  0
  8  2  2  0
  9  3  1  0
 10  4  2  0
 11  3  1  0
 12  6  1  0
 13  1  1  0
 14  9  1  0
 15  5  1  0
 16 15  2  0
 17 16  1  0
 18  6  1  0
 19 14  1  0
 20 13  2  0
 21 20  1  0
 18 21  2  0
 17  9  2  0
M  END
> <COMPOUND_ID>
DNDI1417965

$$$$

  SciTegic04051205032D

 21 22  0  0  0  0            999 V2000
   10.8383   -6.7489    0.0000 C   0  0
    9.4240   -6.3538    0.0000 N   0  0
   11.0516   -5.9666    0.0000 C   0  0
    8.0570   -6.0772    0.0000 C   0  0
    8.6891   -6.5790    0.0000 N   0  0
   10.0245   -6.9543    0.0000 C   0  0
   11.8537   -5.7533    0.0000 C   0  0
    7.2392   -6.2787    0.0000 C   0  0
   11.4191   -7.3217    0.0000 C   0  0
    8.2743   -5.2475    0.0000 O   0  0
    6.6031   -5.7453    0.0000 C   0  0
   12.4463   -6.3341    0.0000 C   0  0
   10.4670   -5.3819    0.0000 O   0  0
   12.2250   -7.1123    0.0000 C   0  0
    5.7892   -5.9982    0.0000 C   0  0
    5.1650   -5.4649    0.0000 I   0  0
   13.2405   -6.1326    0.0000 O   0  0
    7.0258   -7.0689    0.0000 C   0  0
    6.2001   -7.3020    0.0000 C   0  0
    9.8348   -7.7445    0.0000 C   0  0
    5.5680   -6.7370    0.0000 C   0  0
  2  6  2  0
  3  1  1  0
  4  5  1  0
  5  2  1  0
  6  1  1  0
  7  3  2  0
  8  4  1  0
  9  1  2  0
 10  4  2  0
 11  8  2  0
 12 14  2  0
 13  3  1  0
 14  9  1  0
 15 11  1  0
 16 15  1  0
 17 12  1  0
 18  8  1  0
 19 18  2  0
 20  6  1  0
 21 19  1  0
 12  7  1  0
 21 15  2  0
M  END
> <COMPOUND_ID>
DNDI1417966

$$$$

  SciTegic04051205032D

 24 25  0  0  0  0            999 V2000
    7.7004   -8.7061    0.0000 C   0  0
    7.4800   -9.4997    0.0000 C   0  0
    8.4967   -8.4968    0.0000 C   0  0
    7.1189   -8.1275    0.0000 O   0  0
    8.0669  -10.0894    0.0000 C   0  0
    9.0864   -9.0809    0.0000 C   0  0
    8.8742   -9.8745    0.0000 C   0  0
    6.6808   -9.7202    0.0000 Br  0  0
    7.3284   -7.3339    0.0000 C   0  0
    8.7172   -7.6949    0.0000 O   0  0
    5.5787   -5.5842    0.0000 C   0  0
    6.7442   -6.7497    0.0000 C   0  0
    9.4557  -11.2826    0.0000 N   0  0
    5.0000   -5.0000    0.0000 F   0  0
    5.3609   -6.3805    0.0000 C   0  0
    6.3777   -5.3720    0.0000 C   0  0
    6.9564   -5.9562    0.0000 C   0  0
    5.9479   -6.9619    0.0000 C   0  0
    9.4557  -10.4586    0.0000 C   0  0
   10.1721  -11.6959    0.0000 C   0  0
    9.5080   -7.4855    0.0000 C   0  0
   10.8858  -11.2826    0.0000 C   0  0
   11.5939  -11.6959    0.0000 C   0  0
   12.3076  -11.2826    0.0000 C   0  0
  2  1  2  0
  3  1  1  0
  4  1  1  0
  5  2  1  0
  6  3  2  0
  7  5  2  0
  8  2  1  0
  9  4  1  0
 10  3  1  0
 11 16  1  0
 12  9  1  0
 13 19  1  0
 14 11  1  0
 15 18  1  0
 16 17  2  0
 17 12  1  0
 18 12  2  0
 19  7  1  0
 20 13  1  0
 21 10  1  0
 22 20  1  0
 23 22  1  0
 24 23  1  0
  7  6  1  0
 11 15  2  0
M  END
> <COMPOUND_ID>
DNDI1417967

$$$$

  SciTegic04051205032D

 26 27  0  0  0  0            999 V2000
    7.8607   -6.6649    0.0000 C   0  0
    7.1424   -6.2456    0.0000 C   0  0
    8.5749   -7.0759    0.0000 C   0  0
    6.4200   -6.6649    0.0000 C   0  0
    7.1424   -5.4193    0.0000 C   0  0
    8.5749   -7.8980    0.0000 C   0  0
    9.2724   -6.6649    0.0000 C   0  0
    7.1424   -7.0677    0.0000 O   0  0
    5.7058   -5.4193    0.0000 C   0  0
    9.9907   -7.8980    0.0000 C   0  0
    6.4200   -9.1312    0.0000 N   0  0
    9.9907   -7.0677    0.0000 C   0  0
    5.7058   -6.2456    0.0000 C   0  0
    6.4200   -5.0082    0.0000 C   0  0
    9.2724   -8.3133    0.0000 C   0  0
    5.0000   -5.0124    0.0000 Cl  0  0
   10.7048   -8.3133    0.0000 Cl  0  0
    8.5749   -6.2456    0.0000 C   0  0
    7.1342   -7.8980    0.0000 C   0  0
    8.5749   -5.4193    0.0000 O   0  0
    6.4200   -8.3008    0.0000 C   0  0
    7.1175   -9.5422    0.0000 C   0  0
    5.6975   -9.5422    0.0000 C   0  0
    9.2890   -5.0000    0.0000 C   0  0
    7.1175  -10.3685    0.0000 C   0  0
    5.6975  -10.3685    0.0000 C   0  0
  2  1  1  0
  3  1  1  0
  4  2  2  0
  5  2  1  0
  6  3  2  0
  7  3  1  0
  8  1  1  0
  9 14  1  0
 10 12  1  0
 11 21  1  0
 12  7  2  0
 13  4  1  0
 14  5  2  0
 15  6  1  0
 16  9  1  0
 17 10  1  0
 18  1  1  0
 19  8  1  0
 20 18  1  0
 21 19  1  0
 22 11  1  0
 23 11  1  0
 24 20  1  0
 25 22  1  0
 26 23  1  0
 10 15  2  0
  9 13  2  0
M  END
> <COMPOUND_ID>
DNDI1417968

$$$$

  SciTegic04051205032D

 30 33  0  0  0  0            999 V2000
    9.4800   -8.0662    0.0000 C   0  0
    9.4938   -7.2813    0.0000 C   0  0
    8.1259   -8.0433    0.0000 N   0  0
    8.8007   -8.4518    0.0000 N   0  0
    8.1397   -7.2584    0.0000 C   0  0
   10.1410   -8.4564    0.0000 C   0  0
    7.5935   -6.6892    0.0000 C   0  0
   13.3771   -9.1174    0.0000 C   0  0
   11.8715   -8.4564    0.0000 N   0  0
    6.8361   -6.8728    0.0000 C   0  0
   13.2945   -8.2912    0.0000 C   0  0
   10.9902   -8.0708    0.0000 N   0  0
    6.2991   -6.3220    0.0000 C   0  0
   10.1273   -9.2413    0.0000 O   0  0
    7.8092   -5.9364    0.0000 C   0  0
   14.1345   -9.4479    0.0000 C   0  0
   12.5325   -7.9607    0.0000 C   0  0
    6.5056   -5.5646    0.0000 C   0  0
    7.2630   -5.3718    0.0000 C   0  0
   13.5790  -10.7652    0.0000 C   0  0
   13.6663  -11.5777    0.0000 C   0  0
   12.7161   -9.6085    0.0000 O   0  0
   14.2400  -10.2695    0.0000 C   0  0
   13.9555   -7.8092    0.0000 C   0  0
   14.7128   -8.1397    0.0000 C   0  0
   14.8092   -8.9522    0.0000 C   0  0
    5.5370   -6.5010    0.0000 C   0  0
    5.9686   -5.0000    0.0000 C   0  0
    5.0000   -5.9364    0.0000 C   0  0
    5.2066   -5.1882    0.0000 C   0  0
  2  1  2  0
  3  4  1  0
  4  1  1  0
  5  2  1  0
  6  1  1  0
  7  5  1  0
  8 11  1  0
  9 12  1  0
 10  7  2  0
 11 17  1  0
 12  6  1  0
 13 10  1  0
 14  6  2  0
 15  7  1  0
 16  8  2  0
 17  9  2  0
 18 19  1  0
 19 15  2  0
 20 23  1  0
 21 20  2  0
 22  8  1  0
 23 16  1  0
 24 11  2  0
 25 24  1  0
 26 25  2  0
 27 13  1  0
 28 18  1  0
 29 27  2  0
 30 28  2  0
  5  3  2  0
 18 13  2  0
 16 26  1  0
 30 29  1  0
M  END
> <COMPOUND_ID>
DNDI1417969

$$$$

  SciTegic04051205032D

 28 31  0  0  0  0            999 V2000
    7.8915   -8.9390    0.0000 S   0  0
   10.1164   -7.6849    0.0000 C   0  0
    9.3539   -8.0641    0.0000 C   0  0
    9.3289   -8.9390    0.0000 C   0  0
    8.6248   -9.3598    0.0000 N   0  0
   10.8288   -8.1349    0.0000 C   0  0
   10.7996   -8.9598    0.0000 C   0  0
   10.0539   -9.3723    0.0000 C   0  0
   10.1539   -6.8641    0.0000 N   0  0
    7.1666   -8.5640    0.0000 C   0  0
    7.5123   -9.6640    0.0000 O   0  0
    8.3040   -8.2223    0.0000 O   0  0
   11.5371   -7.7724    0.0000 O   0  0
    7.1374   -7.7266    0.0000 C   0  0
    6.4791   -8.9765    0.0000 C   0  0
   10.1539   -5.2475    0.0000 O   0  0
    6.4124   -7.3266    0.0000 C   0  0
    5.7542   -8.5973    0.0000 C   0  0
    5.7167   -7.7724    0.0000 C   0  0
   11.4788   -9.3890    0.0000 C   0  0
    9.4497   -6.4642    0.0000 C   0  0
   10.9163   -6.4642    0.0000 C   0  0
   10.0539  -10.1972    0.0000 C   0  0
   10.8788   -5.6767    0.0000 C   0  0
    9.4497   -5.6767    0.0000 C   0  0
    5.0000   -7.3891    0.0000 C   0  0
   11.4788  -10.1972    0.0000 C   0  0
   10.7746  -10.6014    0.0000 C   0  0
  2  3  2  0
  3  4  1  0
  4  5  2  0
  5  1  1  0
  6  7  1  0
  7  8  2  0
  8  4  1  0
  9  2  1  0
 10  1  1  0
 11  1  2  0
 12  1  2  0
 13  6  2  0
 14 10  2  0
 15 10  1  0
 16 24  1  0
 17 14  1  0
 18 15  2  0
 19 18  1  0
 20  7  1  0
 21  9  1  0
 22  9  1  0
 23  8  1  0
 24 22  1  0
 25 21  1  0
 26 19  1  0
 27 28  1  0
 28 23  2  0
 17 19  2  0
  2  6  1  0
 20 27  2  0
 25 16  1  0
M  END
> <COMPOUND_ID>
DNDI1417970

$$$$

  SciTegic04051205032D

 29 32  0  0  0  0            999 V2000
    8.2093   -6.5749    0.0000 N   0  0
    7.8853   -7.2884    0.0000 C   0  0
    7.6423   -6.0514    0.0000 C   0  0
    7.1095   -7.1887    0.0000 C   0  0
    6.9474   -6.4502    0.0000 C   0  0
    5.5204   -6.3724    0.0000 C   0  0
    6.1965   -7.2167    0.0000 C   0  0
    6.1217   -6.8273    0.0000 C   0  0
    9.0007   -6.3973    0.0000 N   0  0
    9.5585   -6.9893    0.0000 C   0  0
    5.6917   -7.6966    0.0000 C   0  0
    5.7665   -8.1297    0.0000 C   0  0
    5.6543   -5.5560    0.0000 C   0  0
    8.2592   -8.0051    0.0000 O   0  0
    7.7388   -5.2475    0.0000 O   0  0
   10.3593   -6.8179    0.0000 C   0  0
   10.9295   -7.4255    0.0000 O   0  0
   12.7834   -6.2633    0.0000 C   0  0
    9.2968   -7.7839    0.0000 O   0  0
   11.7552   -7.2510    0.0000 C   0  0
   11.9670   -6.4845    0.0000 C   0  0
   13.3723   -6.8833    0.0000 C   0  0
   13.1293   -7.6623    0.0000 C   0  0
   12.3378   -7.8306    0.0000 C   0  0
    6.4178   -5.2475    0.0000 C   0  0
    5.0000   -5.0637    0.0000 C   0  0
   12.9797   -5.4719    0.0000 C   0  0
   10.6085   -6.0514    0.0000 C   0  0
   14.1793   -6.7338    0.0000 C   0  0
  2  1  1  0
  3  1  1  0
  4  2  1  0
  5  3  1  0
  6  7  1  0
  7  4  1  0
  8  5  1  0
  9  1  1  0
 10  9  1  0
 11  8  1  0
 12  7  1  0
 13  6  2  0
 14  2  2  0
 15  3  2  0
 16 10  1  0
 17 16  1  0
 18 21  1  0
 19 10  2  0
 20 17  1  0
 21 20  2  0
 22 23  1  0
 23 24  2  0
 24 20  1  0
 25 13  1  0
 26 13  1  0
 27 18  1  0
 28 16  1  0
 29 22  1  0
  4  5  1  0
  6  8  1  0
 12 11  1  0
 22 18  2  0
M  END
> <COMPOUND_ID>
DNDI1417971

$$$$

  SciTegic04051205032D

 29 32  0  0  0  0            999 V2000
    8.7391   -6.8971    0.0000 N   0  0
    8.0208   -6.4847    0.0000 N   0  0
    9.4504   -6.4847    0.0000 C   0  0
   10.1653   -6.8971    0.0000 N   0  0
    8.0208   -5.6599    0.0000 C   0  0
   12.3097   -6.4847    0.0000 C   0  0
   11.5949   -6.8971    0.0000 C   0  0
    9.4504   -5.6599    0.0000 C   0  0
    8.7391   -5.2475    0.0000 C   0  0
   10.8767   -6.4847    0.0000 C   0  0
   13.0211   -6.8971    0.0000 N   0  0
    7.3094   -6.8971    0.0000 C   0  0
   12.3097   -5.6599    0.0000 O   0  0
    7.3094   -5.2475    0.0000 O   0  0
    7.3094   -7.7219    0.0000 C   0  0
    6.5946   -6.4847    0.0000 C   0  0
   10.1653   -7.7219    0.0000 C   0  0
    5.8764   -7.7219    0.0000 C   0  0
   13.0211   -7.7219    0.0000 C   0  0
    6.5946   -8.1343    0.0000 C   0  0
    5.8764   -6.8971    0.0000 C   0  0
   11.5949   -7.7219    0.0000 C   0  0
    5.1650   -8.1343    0.0000 O   0  0
   10.8767   -8.1343    0.0000 C   0  0
    5.1650   -8.9591    0.0000 C   0  0
   12.3510   -8.2065    0.0000 C   0  0
   13.6912   -8.2065    0.0000 C   0  0
   12.6087   -8.9900    0.0000 C   0  0
   13.4335   -8.9900    0.0000 C   0  0
  2  1  1  0
  3  1  2  0
  4  3  1  0
  5  2  1  0
  6  7  1  0
  7 10  1  0
  8  3  1  0
  9  8  2  0
 10  4  1  0
 11  6  1  0
 12  2  1  0
 13  6  2  0
 14  5  2  0
 15 12  1  0
 16 12  2  0
 17  4  1  0
 18 21  2  0
 19 11  1  0
 20 15  2  0
 21 16  1  0
 22 24  1  0
 23 18  1  0
 24 17  1  0
 25 23  1  0
 26 19  1  0
 27 19  1  0
 28 26  1  0
 29 27  1  0
  5  9  1  0
 18 20  1  0
 22  7  1  0
 28 29  1  0
M  END
> <COMPOUND_ID>
DNDI1417972

$$$$

  SciTegic04051205032D

 26 27  0  0  0  0            999 V2000
    7.1423   -9.1001    0.0000 S   0  0
    6.3214   -8.9813    0.0000 C   0  0
    7.9477   -9.2174    0.0000 N   0  0
    8.4731   -8.5825    0.0000 C   0  0
    8.1728   -7.8131    0.0000 C   0  0
    5.6849   -9.5036    0.0000 S   0  0
    7.0203   -9.9180    0.0000 O   0  0
    7.2659   -8.2791    0.0000 O   0  0
    8.6920   -7.1626    0.0000 N   0  0
    9.2894   -8.7060    0.0000 C   0  0
    6.0211   -8.2166    0.0000 C   0  0
    8.9078   -5.7646    0.0000 C   0  0
    5.0000   -9.0563    0.0000 C   0  0
    7.3644   -7.6865    0.0000 O   0  0
    5.1876   -8.2682    0.0000 C   0  0
    8.6044   -5.0000    0.0000 O   0  0
    8.3840   -6.4073    0.0000 C   0  0
    9.5880   -9.4926    0.0000 C   0  0
    9.7256   -5.8991    0.0000 O   0  0
   10.2401   -5.2517    0.0000 C   0  0
    9.0689  -10.1369    0.0000 C   0  0
   10.3965   -9.6130    0.0000 C   0  0
   11.0626   -5.3878    0.0000 C   0  0
    9.3691  -10.9031    0.0000 C   0  0
   10.7014  -10.3808    0.0000 C   0  0
   10.1901  -11.0204    0.0000 C   0  0
  2  1  1  0
  3  1  1  0
  4  3  1  0
  5  4  1  0
  6  2  1  0
  7  1  2  0
  8  1  2  0
  9  5  1  0
 10  4  1  0
 11  2  2  0
 12 17  1  0
 13  6  1  0
 14  5  2  0
 15 11  1  0
 16 12  2  0
 17  9  1  0
 18 10  1  0
 19 12  1  0
 20 19  1  0
 21 18  2  0
 22 18  1  0
 23 20  1  0
 24 21  1  0
 25 22  2  0
 26 25  1  0
 15 13  2  0
 24 26  2  0
M  END
> <COMPOUND_ID>
DNDI1417973

$$$$

  SciTegic04051205032D

 29 32  0  0  0  0            999 V2000
    7.1102   -6.8661    0.0000 C   0  0
    5.8746   -7.3186    0.0000 C   0  0
    6.3118   -5.8136    0.0000 C   0  0
    7.9085   -6.7289    0.0000 C   0  0
    7.1102   -6.1034    0.0000 C   0  0
    6.5610   -7.5373    0.0000 C   0  0
    6.4390   -7.1712    0.0000 C   0  0
    9.2509   -7.1814    0.0000 N   0  0
    5.5644   -6.8661    0.0000 C   0  0
    5.8542   -6.3271    0.0000 C   0  0
    8.4576   -7.3390    0.0000 N   0  0
    5.0000   -7.5373    0.0000 C   0  0
    5.5644   -6.1340    0.0000 C   0  0
    8.1983   -5.9610    0.0000 O   0  0
    9.8153   -7.7814    0.0000 C   0  0
   10.6085   -7.5983    0.0000 C   0  0
   12.2254   -7.2170    0.0000 C   0  0
   11.1677   -8.2085    0.0000 C   0  0
   10.8373   -6.8051    0.0000 C   0  0
   11.9813   -7.9949    0.0000 C   0  0
   11.6559   -6.6068    0.0000 C   0  0
    5.4119   -8.0966    0.0000 C   0  0
    6.3118   -5.0000    0.0000 C   0  0
   13.0338   -7.0593    0.0000 O   0  0
   13.5830   -7.6847    0.0000 C   0  0
   14.3914   -7.5221    0.0000 C   0  0
   14.9253   -8.1322    0.0000 C   0  0
   15.7439   -7.9898    0.0000 C   0  0
   14.6456   -8.8898    0.0000 C   0  0
  2  6  1  0
  3  5  1  0
  4  1  1  0
  5  1  1  0
  6  1  1  0
  7  1  1  0
  8 11  1  0
  9  7  1  0
 10  2  1  0
 11  4  1  0
 12  9  1  0
 13  9  1  0
 14  4  2  0
 15  8  2  0
 16 15  1  0
 17 21  2  0
 18 16  1  0
 19 16  2  0
 20 18  2  0
 21 19  1  0
 22  2  1  0
 23  3  1  0
 24 17  1  0
 25 24  1  0
 26 25  1  0
 27 26  1  0
 28 27  1  0
 29 27  1  0
  3 13  1  0
  2 12  1  0
  3 10  1  0
 20 17  1  0
M  END
> <COMPOUND_ID>
DNDI1417974

$$$$

  SciTegic04051205032D

 29 30  0  0  0  0            999 V2000
   10.7774   -7.1432    0.0000 N   0  0
    9.9509   -7.1432    0.0000 N   0  0
   11.1927   -7.8576    0.0000 C   0  0
   10.7815   -8.5719    0.0000 C   0  0
    7.0601   -6.4288    0.0000 C   0  0
    9.5397   -6.4288    0.0000 C   0  0
    6.2377   -6.4329    0.0000 N   0  0
   11.1927   -6.4288    0.0000 C   0  0
    7.4755   -7.1432    0.0000 C   0  0
    7.4713   -5.7185    0.0000 C   0  0
   11.1886   -9.2863    0.0000 C   0  0
   10.7774   -9.9966    0.0000 N   0  0
    8.7090   -6.4288    0.0000 C   0  0
    8.2979   -5.7144    0.0000 C   0  0
    8.2979   -7.1432    0.0000 C   0  0
    9.9509   -8.5719    0.0000 O   0  0
    5.8224   -5.7185    0.0000 C   0  0
    5.8266   -7.1514    0.0000 C   0  0
   12.0193   -6.4329    0.0000 C   0  0
   10.7774   -5.7185    0.0000 C   0  0
   11.1886  -10.7110    0.0000 C   0  0
    9.9551   -9.9924    0.0000 C   0  0
    5.0000   -5.7185    0.0000 C   0  0
    5.0042   -7.1556    0.0000 C   0  0
    9.5439  -10.7068    0.0000 C   0  0
   10.7774  -11.4212    0.0000 C   0  0
   12.4346   -5.7185    0.0000 C   0  0
   11.1886   -5.0042    0.0000 C   0  0
   12.0193   -5.0000    0.0000 C   0  0
  2  1  1  0
  3  1  1  0
  4  3  1  0
  5 10  2  0
  6  2  2  0
  7  5  1  0
  8  1  1  0
  9 15  2  0
 10 14  1  0
 11  4  1  0
 12 11  1  0
 13  6  1  0
 14 13  2  0
 15 13  1  0
 16  4  1  0
 17  7  1  0
 18  7  1  0
 19  8  2  0
 20  8  1  0
 21 12  1  0
 22 12  1  0
 23 17  1  0
 24 18  1  0
 25 22  1  0
 26 21  1  0
 27 19  1  0
 28 20  2  0
 29 28  1  0
 29 27  2  0
  5  9  1  0
M  END
> <COMPOUND_ID>
DNDI1417975

$$$$

  SciTegic04051205032D

 29 32  0  0  0  0            999 V2000
    9.2471   -8.2747    0.0000 C   0  0
    9.9686   -8.6700    0.0000 N   0  0
    8.5194   -8.7013    0.0000 N   0  0
    9.9686   -9.5169    0.0000 C   0  0
    8.5194   -9.5169    0.0000 C   0  0
    9.2471   -9.9309    0.0000 N   0  0
    9.2471   -7.4403    0.0000 N   0  0
   10.6962   -9.9686    0.0000 N   0  0
    7.8042   -9.9058    0.0000 N   0  0
    8.8582   -5.8406    0.0000 N   0  0
    9.8493   -6.8632    0.0000 C   0  0
    8.4629   -7.1957    0.0000 C   0  0
    9.6423   -6.1104    0.0000 C   0  0
    8.2872   -6.3739    0.0000 C   0  0
    7.1079   -9.4792    0.0000 C   0  0
   10.6962  -10.7778    0.0000 C   0  0
    5.7277   -8.6448    0.0000 C   0  0
   10.6962  -12.4340    0.0000 C   0  0
    5.0000   -8.1931    0.0000 F   0  0
   10.6649  -13.2433    0.0000 F   0  0
   11.4177  -11.2044    0.0000 C   0  0
    7.1392   -8.6700    0.0000 C   0  0
    9.9686  -11.2044    0.0000 C   0  0
    6.3864   -9.8745    0.0000 C   0  0
    5.6964   -9.4541    0.0000 C   0  0
   11.4177  -12.0137    0.0000 C   0  0
    9.9686  -12.0137    0.0000 C   0  0
    6.4492   -8.2496    0.0000 C   0  0
    8.6700   -5.0000    0.0000 C   0  0
  2  1  1  0
  3  1  2  0
  4  2  2  0
  5  3  1  0
  6  5  2  0
  7  1  1  0
  8  4  1  0
  9  5  1  0
 10 14  1  0
 11  7  1  0
 12  7  1  0
 13 11  1  0
 14 12  1  0
 15  9  1  0
 16  8  1  0
 17 25  1  0
 18 27  2  0
 19 17  1  0
 20 18  1  0
 21 16  1  0
 22 15  2  0
 23 16  2  0
 24 15  1  0
 25 24  2  0
 26 21  2  0
 27 23  1  0
 28 22  1  0
 29 10  1  0
 10 13  1  0
  4  6  1  0
 17 28  2  0
 18 26  1  0
M  END
> <COMPOUND_ID>
DNDI1417976

$$$$

  SciTegic04051205032D

 29 31  0  0  0  0            999 V2000
    9.2343   -7.6843    0.0000 N   0  0
    8.5263   -7.2788    0.0000 C   0  0
    9.3064   -8.4921    0.0000 C   0  0
    8.5263   -6.4642    0.0000 N   0  0
    9.9698   -7.3509    0.0000 N   0  0
    7.8252   -7.6809    0.0000 N   0  0
   10.1072   -8.6570    0.0000 C   0  0
    8.9627   -9.4131    0.0000 N   0  0
    7.8252   -6.0484    0.0000 C   0  0
    7.1274   -6.4642    0.0000 C   0  0
    8.1379   -9.5403    0.0000 C   0  0
    7.1274   -7.2788    0.0000 C   0  0
   10.5128   -7.9524    0.0000 C   0  0
    7.8388  -10.3274    0.0000 C   0  0
    7.0140  -10.4648    0.0000 C   0  0
    6.7116  -11.2484    0.0000 C   0  0
    7.6086   -8.9010    0.0000 O   0  0
    7.2478  -11.8911    0.0000 C   0  0
    7.8252   -5.2475    0.0000 O   0  0
    8.3579  -10.9803    0.0000 C   0  0
    8.0760  -11.7571    0.0000 C   0  0
    5.8970  -11.3756    0.0000 O   0  0
    6.9521  -12.6782    0.0000 O   0  0
    6.3507   -7.4472    0.0000 C   0  0
   11.3205   -7.8665    0.0000 C   0  0
    5.6049  -12.1627    0.0000 C   0  0
    7.4849  -13.3175    0.0000 C   0  0
    5.7630   -6.8904    0.0000 C   0  0
    5.0000   -7.0141    0.0000 C   0  0
  2  1  1  0
  3  1  1  0
  4  2  1  0
  5  1  1  0
  6  2  2  0
  7  3  2  0
  8  3  1  0
  9  4  1  0
 10 12  2  0
 11  8  1  0
 12  6  1  0
 13  5  2  0
 14 11  1  0
 15 14  1  0
 16 15  2  0
 17 11  2  0
 18 21  2  0
 19  9  2  0
 20 14  2  0
 21 20  1  0
 22 16  1  0
 23 18  1  0
 24 12  1  0
 25 13  1  0
 26 22  1  0
 27 23  1  0
 28 24  1  0
 29 28  1  0
  7 13  1  0
  9 10  1  0
 18 16  1  0
M  END
> <COMPOUND_ID>
DNDI1417977

$$$$

  SciTegic04051205032D

 28 30  0  0  0  0            999 V2000
   11.2218   -6.7614    0.0000 C   0  0
   11.8699   -7.2799    0.0000 O   0  0
   12.5579   -6.7880    0.0000 C   0  0
   15.3347   -6.0585    0.0000 C   0  0
   13.9538   -6.4324    0.0000 N   0  0
   11.4860   -6.0336    0.0000 C   0  0
    9.0681   -6.4723    0.0000 C   0  0
   12.2936   -6.0336    0.0000 C   0  0
    8.5297   -5.8092    0.0000 N   0  0
   13.3705   -7.0306    0.0000 C   0  0
   10.4092   -6.9210    0.0000 S   0  0
   14.7764   -6.6169    0.0000 N   0  0
    7.6971   -6.0086    0.0000 C   0  0
    6.6053   -6.9359    0.0000 C   0  0
    7.4179   -6.7764    0.0000 C   0  0
   15.1353   -5.2475    0.0000 O   0  0
    8.8088   -7.2001    0.0000 O   0  0
    6.0519   -6.3277    0.0000 C   0  0
    6.3012   -5.5450    0.0000 C   0  0
    9.8807   -6.3127    0.0000 C   0  0
    7.1171   -5.3855    0.0000 C   0  0
   16.1174   -6.2978    0.0000 C   0  0
   16.3119   -7.0955    0.0000 O   0  0
    6.3560   -7.7336    0.0000 C   0  0
    5.2393   -6.5271    0.0000 C   0  0
   17.1095   -7.3348    0.0000 C   0  0
    5.5484   -7.9330    0.0000 C   0  0
    5.0000   -7.3098    0.0000 C   0  0
  2  1  1  0
  3  2  1  0
  4 12  1  0
  5 10  2  0
  6  1  2  0
  7 20  1  0
  8  6  1  0
  9  7  1  0
 10  3  1  0
 11  1  1  0
 12  5  1  0
 13  9  1  0
 14 15  1  0
 15 13  2  0
 16  4  2  0
 17  7  2  0
 18 19  1  0
 19 21  2  0
 20 11  1  0
 21 13  1  0
 22  4  1  0
 23 22  1  0
 24 14  1  0
 25 18  1  0
 26 23  1  0
 27 24  2  0
 28 25  2  0
  3  8  2  0
 18 14  2  0
 28 27  1  0
M  END
> <COMPOUND_ID>
DNDI1417978

$$$$

  SciTegic04051205032D

 29 30  0  0  0  0            999 V2000
   11.4192   -8.2932    0.0000 C   0  0
    7.1356  -11.5906    0.0000 C   0  0
   11.4192   -7.4532    0.0000 C   0  0
   10.7046   -9.5344    0.0000 C   0  0
   10.7046   -8.7153    0.0000 C   0  0
    7.8460  -11.1769    0.0000 C   0  0
    9.9816   -9.9356    0.0000 N   0  0
   12.1255   -7.0478    0.0000 C   0  0
   10.6837   -7.0478    0.0000 C   0  0
    7.1356  -12.4264    0.0000 O   0  0
   11.4234   -9.9356    0.0000 O   0  0
    7.8460  -10.3577    0.0000 C   0  0
    8.5607  -11.5906    0.0000 C   0  0
   12.1255   -6.2245    0.0000 C   0  0
    9.2670  -10.3577    0.0000 C   0  0
   10.6837   -6.2245    0.0000 C   0  0
    6.4210  -11.1769    0.0000 O   0  0
    8.5607   -9.9356    0.0000 C   0  0
    9.2670  -11.1769    0.0000 C   0  0
   11.4067   -5.7982    0.0000 C   0  0
   12.8402   -7.4532    0.0000 O   0  0
    6.4210  -10.3577    0.0000 C   0  0
    9.9691   -5.7982    0.0000 O   0  0
    5.7063   -9.9356    0.0000 C   0  0
    5.7063   -9.1165    0.0000 C   0  0
   12.8402   -8.2807    0.0000 C   0  0
    9.9691   -5.0000    0.0000 C   0  0
    6.4210   -8.7153    0.0000 C   0  0
    5.0000   -8.7027    0.0000 C   0  0
  2  6  1  0
  3  1  1  0
  4  5  1  0
  5  1  2  0
  6 13  1  0
  7  4  1  0
  8  3  2  0
  9  3  1  0
 10  2  2  0
 11  4  2  0
 12 18  1  0
 13 19  2  0
 14  8  1  0
 15  7  1  0
 16  9  2  0
 17  2  1  0
 18 15  2  0
 19 15  1  0
 20 16  1  0
 21  8  1  0
 22 17  1  0
 23 16  1  0
 24 22  1  0
 25 24  1  0
 26 21  1  0
 27 23  1  0
 28 25  1  0
 29 25  1  0
 14 20  2  0
 12  6  2  0
M  END
> <COMPOUND_ID>
DNDI1417979

$$$$

  SciTegic04051205032D

 27 30  0  0  0  0            999 V2000
    6.4174   -6.4764    0.0000 S   0  0
    7.0965   -6.0237    0.0000 C   0  0
    6.4174   -8.9568    0.0000 C   0  0
    7.1260   -9.3849    0.0000 C   0  0
    5.7087   -6.9046    0.0000 N   0  0
    7.8593   -8.9765    0.0000 C   0  0
    7.8593   -6.3190    0.0000 S   0  0
    6.8603   -7.2048    0.0000 O   0  0
    5.9892   -5.7677    0.0000 O   0  0
    5.6792   -9.3604    0.0000 C   0  0
    6.4174   -8.1497    0.0000 C   0  0
    7.1260  -10.1872    0.0000 C   0  0
    7.1506   -5.1969    0.0000 C   0  0
    5.7087   -7.7314    0.0000 C   0  0
    8.3958   -5.6989    0.0000 C   0  0
    7.9626   -5.0000    0.0000 C   0  0
    8.5680   -9.3849    0.0000 C   0  0
    7.8347  -10.6301    0.0000 C   0  0
    8.5434  -10.2117    0.0000 C   0  0
    5.0000   -8.9568    0.0000 C   0  0
    5.0000   -8.1202    0.0000 C   0  0
    5.6594  -10.1872    0.0000 O   0  0
    6.3681  -10.5661    0.0000 O   0  0
    7.8593   -8.1497    0.0000 C   0  0
    9.2766   -8.9765    0.0000 C   0  0
    8.5680   -7.7314    0.0000 C   0  0
    9.2964   -8.1792    0.0000 C   0  0
  2  1  1  0
  3 11  2  0
  4  3  1  0
  5  1  1  0
  6  4  1  0
  7  2  1  0
  8  1  2  0
  9  1  2  0
 10 20  2  0
 11 14  1  0
 12  4  2  0
 13  2  2  0
 14  5  1  0
 15  7  1  0
 16 13  1  0
 17  6  2  0
 18 12  1  0
 19 18  2  0
 20 21  1  0
 21 14  2  0
 22 10  1  0
 23 12  1  0
 24  6  1  0
 25 17  1  0
 26 24  2  0
 27 26  1  0
 16 15  2  0
  3 10  1  0
 17 19  1  0
 25 27  2  0
M  END
> <COMPOUND_ID>
DNDI1417980

$$$$

  SciTegic04051205032D

 29 30  0  0  0  0            999 V2000
    9.4871   -6.6545    0.0000 C   0  0
   10.1848   -7.1015    0.0000 C   0  0
   10.1347   -7.9329    0.0000 C   0  0
    8.7602   -7.0305    0.0000 C   0  0
    9.5330   -5.8356    0.0000 C   0  0
   10.8240   -8.3841    0.0000 C   0  0
    8.0666   -6.5793    0.0000 O   0  0
    9.3869   -8.3047    0.0000 C   0  0
    8.7100   -7.8410    0.0000 C   0  0
    6.1614   -8.6599    0.0000 N   0  0
    7.3271   -6.9511    0.0000 C   0  0
    7.2812   -7.7700    0.0000 C   0  0
    7.9079   -8.3215    0.0000 O   0  0
    6.2534  -10.0261    0.0000 C   0  0
    6.4790   -7.9036    0.0000 C   0  0
    6.6628   -9.3116    0.0000 C   0  0
   10.3645   -5.8774    0.0000 C   0  0
   10.3728   -9.0735    0.0000 C   0  0
    9.5707   -5.0000    0.0000 C   0  0
    8.7100   -5.7979    0.0000 C   0  0
   11.5051   -8.8354    0.0000 C   0  0
   11.2753   -7.6906    0.0000 C   0  0
    5.4219  -10.0135    0.0000 C   0  0
    6.6545  -10.7405    0.0000 C   0  0
    9.5373   -9.0234    0.0000 C   0  0
   10.8032   -5.1838    0.0000 C   0  0
    6.2409  -11.4424    0.0000 C   0  0
    5.0000  -10.7280    0.0000 C   0  0
    5.4094  -11.4424    0.0000 C   0  0
  2  1  2  0
  3  2  1  0
  4  1  1  0
  5  1  1  0
  6  3  1  0
  7  4  1  0
  8  9  1  0
  9  4  2  0
 10 15  1  0
 11  7  1  0
 12 11  1  0
 13 12  1  0
 14 16  1  0
 15 12  1  0
 16 10  1  0
 17  5  1  0
 18  6  1  0
 19  5  1  0
 20  5  1  0
 21  6  1  0
 22  6  1  0
 23 14  2  0
 24 14  1  0
 25 18  1  0
 26 17  1  0
 27 24  2  0
 28 23  1  0
 29 27  1  0
  8  3  2  0
 28 29  2  0
M  END
> <COMPOUND_ID>
DNDI1417981

$$$$

  SciTegic04051205032D

 28 29  0  0  0  0            999 V2000
    9.8180   -9.9704    0.0000 N   0  0
    9.1022   -9.5645    0.0000 C   0  0
    9.8180  -10.8007    0.0000 C   0  0
    9.1022   -8.7379    0.0000 C   0  0
    8.3827   -9.9704    0.0000 C   0  0
    9.1133  -11.2139    0.0000 N   0  0
    8.3827  -10.8007    0.0000 C   0  0
    7.6779  -11.2139    0.0000 C   0  0
    5.9915   -8.7933    0.0000 C   0  0
    6.9620  -10.8007    0.0000 C   0  0
    6.6852   -8.4428    0.0000 C   0  0
    7.1133   -6.5977    0.0000 C   0  0
   10.5302  -11.2139    0.0000 O   0  0
    6.5598   -7.6974    0.0000 O   0  0
    6.1354   -9.5645    0.0000 C   0  0
    7.7997   -6.2398    0.0000 O   0  0
    8.4454   -8.1992    0.0000 F   0  0
    9.1022   -7.9852    0.0000 F   0  0
    9.7775   -8.1992    0.0000 F   0  0
    6.9620   -9.9704    0.0000 C   0  0
    7.5229   -8.8560    0.0000 C   0  0
    7.2498   -7.3468    0.0000 C   0  0
    7.6668   -9.6273    0.0000 C   0  0
    5.1650   -8.3763    0.0000 O   0  0
    6.2867   -6.1770    0.0000 O   0  0
    6.1465   -5.4169    0.0000 C   0  0
    5.0395   -7.6199    0.0000 C   0  0
    5.3200   -5.0000    0.0000 C   0  0
  2  1  2  0
  3  1  1  0
  4  2  1  0
  5  2  1  0
  6  3  1  0
  7  6  1  0
  8  7  1  0
  9 15  2  0
 10  8  2  0
 11 21  2  0
 12 22  1  0
 13  3  2  0
 14 11  1  0
 15 20  1  0
 16 12  2  0
 17  4  1  0
 18  4  1  0
 19  4  1  0
 20 10  1  0
 21 23  1  0
 22 14  1  0
 23 20  2  0
 24  9  1  0
 25 12  1  0
 26 25  1  0
 27 24  1  0
 28 26  1  0
  5  7  2  0
  9 11  1  0
M  END
> <COMPOUND_ID>
DNDI1417982

$$$$

  SciTegic04051205032D

 30 34  0  0  0  0            999 V2000
    7.9780   -7.3936    0.0000 C   0  0
    8.7375   -7.7647    0.0000 C   0  0
    8.7972   -8.5711    0.0000 N   0  0
    7.2484   -7.8628    0.0000 C   0  0
    9.4030   -9.1599    0.0000 C   0  0
    9.4414   -7.2997    0.0000 C   0  0
    6.4847   -7.5087    0.0000 C   0  0
   10.0899   -5.9813    0.0000 C   0  0
    7.9183   -6.5488    0.0000 C   0  0
    9.3902   -6.4464    0.0000 C   0  0
   10.8494   -6.3568    0.0000 C   0  0
    5.7808   -7.9823    0.0000 N   0  0
   10.2094   -5.1408    0.0000 O   0  0
   11.4382   -5.7424    0.0000 O   0  0
   11.0414   -5.0000    0.0000 C   0  0
   10.0430   -8.9039    0.0000 O   0  0
    9.4030   -9.9279    0.0000 C   0  0
   10.1966   -7.6708    0.0000 C   0  0
    6.4591   -6.6384    0.0000 C   0  0
    7.1631   -6.1733    0.0000 C   0  0
   10.9091   -7.2016    0.0000 C   0  0
    7.3252   -8.6991    0.0000 O   0  0
    5.0512   -7.5727    0.0000 C   0  0
    8.7332  -10.3118    0.0000 C   0  0
   10.0686  -10.3118    0.0000 C   0  0
    5.7040   -6.2672    0.0000 C   0  0
    5.0000   -6.7365    0.0000 C   0  0
   10.0686  -11.0798    0.0000 C   0  0
    8.7332  -11.0798    0.0000 C   0  0
    9.4030  -11.4638    0.0000 C   0  0
  2  1  1  0
  3  2  1  0
  4  1  2  0
  5  3  1  0
  6  2  1  0
  7  4  1  0
  8 10  1  0
  9  1  1  0
 10  6  2  0
 11 21  1  0
 12  7  2  0
 13  8  1  0
 14 11  1  0
 15 13  1  0
 16  5  2  0
 17  5  1  0
 18  6  1  0
 19 20  1  0
 20  9  2  0
 21 18  2  0
 22  4  1  0
 23 12  1  0
 24 17  2  0
 25 17  1  0
 26 19  2  0
 27 26  1  0
 28 25  2  0
 29 24  1  0
 30 28  1  0
 19  7  1  0
 23 27  2  0
 11  8  2  0
 15 14  1  0
 30 29  2  0
M  END
> <COMPOUND_ID>
DNDI1417983

$$$$

  SciTegic04051205032D

 29 31  0  0  0  0            999 V2000
    6.4273  -12.8586    0.0000 C   0  0
    7.1426  -12.4459    0.0000 N   0  0
    6.4273  -13.6806    0.0000 C   0  0
    7.8512  -10.3686    0.0000 C   0  0
    7.8512  -11.2009    0.0000 C   0  0
    7.1426  -11.6136    0.0000 C   0  0
    8.5631   -9.9559    0.0000 N   0  0
    8.5458   -6.6645    0.0000 C   0  0
    5.7188  -14.0899    0.0000 C   0  0
    8.5596   -7.4728    0.0000 C   0  0
    5.7188  -12.4459    0.0000 O   0  0
    7.1426   -9.9662    0.0000 O   0  0
    9.2681   -6.2518    0.0000 O   0  0
    8.5631   -9.1305    0.0000 C   0  0
    9.2577   -7.8855    0.0000 C   0  0
    7.8408   -7.8923    0.0000 C   0  0
    7.8512  -12.8552    0.0000 C   0  0
    5.0000  -13.6806    0.0000 F   0  0
    7.8408   -6.2518    0.0000 O   0  0
    7.1426  -14.0899    0.0000 C   0  0
    7.8408   -8.7281    0.0000 C   0  0
    9.2577   -8.7281    0.0000 C   0  0
    8.5699  -11.6136    0.0000 C   0  0
    8.5699  -12.4459    0.0000 C   0  0
    5.7188  -14.9222    0.0000 C   0  0
    7.8408   -5.4196    0.0000 C   0  0
    7.1495  -14.9118    0.0000 C   0  0
    7.1186   -5.0000    0.0000 C   0  0
    6.4307  -15.3314    0.0000 C   0  0
  2  1  1  0
  3  1  1  0
  4  5  1  0
  5  6  1  0
  6  2  1  0
  7  4  1  0
  8 10  1  0
  9  3  2  0
 10 15  2  0
 11  1  2  0
 12  4  2  0
 13  8  2  0
 14  7  1  0
 15 22  1  0
 16 21  2  0
 17  2  1  0
 18  9  1  0
 19  8  1  0
 20  3  1  0
 21 14  1  0
 22 14  2  0
 23 24  1  0
 24 17  1  0
 25  9  1  0
 26 19  1  0
 27 20  2  0
 28 26  1  0
 29 27  1  0
 25 29  2  0
 23  5  1  0
 10 16  1  0
M  END
> <COMPOUND_ID>
DNDI1417984

$$$$

  SciTegic04051205032D

 28 30  0  0  0  0            999 V2000
    8.7032   -7.4724    0.0000 C   0  0
    7.9845   -7.8953    0.0000 C   0  0
    8.7032   -6.6574    0.0000 C   0  0
    7.2831   -7.4724    0.0000 N   0  0
    7.9845   -6.2345    0.0000 C   0  0
    7.2694   -6.6574    0.0000 C   0  0
    9.4219   -7.8953    0.0000 C   0  0
    7.9845   -8.7102    0.0000 S   0  0
    7.2934   -9.9481    0.0000 C   0  0
    9.4219   -6.2345    0.0000 O   0  0
    6.5748  -10.3710    0.0000 N   0  0
    6.5919  -11.1860    0.0000 C   0  0
    9.4150   -8.7205    0.0000 O   0  0
    5.8802  -11.6020    0.0000 C   0  0
    8.0121  -10.3710    0.0000 O   0  0
    7.2831   -9.1332    0.0000 C   0  0
   10.1336   -7.4827    0.0000 O   0  0
    5.8802  -12.4169    0.0000 C   0  0
    7.9777   -5.4196    0.0000 C   0  0
    5.1650  -12.8398    0.0000 O   0  0
    6.5507   -6.2345    0.0000 C   0  0
    7.3106  -12.4169    0.0000 C   0  0
    7.3106  -11.6020    0.0000 C   0  0
    6.5989  -12.8398    0.0000 C   0  0
   10.8489   -7.8953    0.0000 C   0  0
    5.1787  -13.6720    0.0000 C   0  0
    7.2694   -5.0000    0.0000 C   0  0
    6.5507   -5.4196    0.0000 C   0  0
  2  1  2  0
  3  1  1  0
  4  2  1  0
  5  3  1  0
  6  5  1  0
  7  1  1  0
  8  2  1  0
  9 16  1  0
 10  3  2  0
 11  9  1  0
 12 11  1  0
 13  7  2  0
 14 12  2  0
 15  9  2  0
 16  8  1  0
 17  7  1  0
 18 14  1  0
 19  5  2  0
 20 18  1  0
 21  6  2  0
 22 23  2  0
 23 12  1  0
 24 22  1  0
 25 17  1  0
 26 20  1  0
 27 19  1  0
 28 27  2  0
  4  6  1  0
 21 28  1  0
 24 18  2  0
M  END
> <COMPOUND_ID>
DNDI1417985

$$$$

  SciTegic04051205032D

 30 33  0  0  0  0            999 V2000
    8.2035   -7.5208    0.0000 C   0  0
    6.9054   -7.8264    0.0000 C   0  0
    8.1320   -8.3385    0.0000 N   0  0
    7.3222   -8.5171    0.0000 N   0  0
    7.4333   -7.2112    0.0000 C   0  0
    8.9140   -7.1040    0.0000 C   0  0
   11.8396   -7.0602    0.0000 C   0  0
   10.3788   -7.0444    0.0000 N   0  0
    9.6523   -7.4890    0.0000 N   0  0
   12.5502   -7.4453    0.0000 C   0  0
    6.3576   -8.4497    0.0000 C   0  0
    6.4291   -7.1635    0.0000 C   0  0
    8.9140   -6.2862    0.0000 O   0  0
   11.8396   -6.2385    0.0000 C   0  0
   11.1409   -7.4612    0.0000 C   0  0
   13.2726   -7.0602    0.0000 C   0  0
   12.5621   -5.8257    0.0000 C   0  0
   13.2766   -6.2425    0.0000 C   0  0
   12.5462   -8.2710    0.0000 O   0  0
    5.5597   -8.2710    0.0000 C   0  0
    6.5918   -9.2276    0.0000 C   0  0
    5.6033   -7.2310    0.0000 C   0  0
    6.7585   -6.4093    0.0000 C   0  0
   12.5621   -5.0000    0.0000 C   0  0
    6.3139   -5.7305    0.0000 C   0  0
    5.0000   -8.8665    0.0000 C   0  0
    6.0480   -9.8390    0.0000 C   0  0
    5.1349   -6.5363    0.0000 C   0  0
    5.4803   -5.7781    0.0000 C   0  0
    5.2302   -9.6683    0.0000 C   0  0
  2  5  1  0
  3  1  2  0
  4  3  1  0
  5  1  1  0
  6  1  1  0
  7 15  1  0
  8  9  1  0
  9  6  1  0
 10  7  2  0
 11  2  1  0
 12  2  1  0
 13  6  2  0
 14  7  1  0
 15  8  2  0
 16 10  1  0
 17 14  2  0
 18 17  1  0
 19 10  1  0
 20 11  2  0
 21 11  1  0
 22 12  1  0
 23 12  2  0
 24 17  1  0
 25 23  1  0
 26 20  1  0
 27 21  2  0
 28 22  2  0
 29 25  2  0
 30 27  1  0
  4  2  1  0
 30 26  2  0
 29 28  1  0
 18 16  2  0
M  END
> <COMPOUND_ID>
DNDI1417986

$$$$

  SciTegic04051205032D

 28 30  0  0  0  0            999 V2000
   10.3993   -6.3445    0.0000 C   0  0
    9.1374   -7.4272    0.0000 C   0  0
    7.0994   -8.2197    0.0000 C   0  0
    8.5052   -7.9579    0.0000 C   0  0
   10.5526   -7.1559    0.0000 C   0  0
    9.6138   -6.0756    0.0000 C   0  0
    7.7315   -7.6771    0.0000 C   0  0
    6.3162   -7.9390    0.0000 C   0  0
    9.9181   -7.6913    0.0000 C   0  0
    8.9887   -6.6039    0.0000 C   0  0
    8.6562   -8.7787    0.0000 S   0  0
    5.6393   -8.3942    0.0000 O   0  0
    6.0804   -7.1276    0.0000 C   0  0
    5.0000   -7.8894    0.0000 C   0  0
    7.2550   -9.0264    0.0000 O   0  0
    5.2595   -7.1181    0.0000 C   0  0
   11.0173   -5.8208    0.0000 O   0  0
    9.4416   -9.0429    0.0000 C   0  0
    9.4676   -5.2759    0.0000 O   0  0
   11.3169   -7.4413    0.0000 O   0  0
    9.5879   -9.8661    0.0000 C   0  0
   10.0667   -8.5169    0.0000 C   0  0
   10.8805   -5.0141    0.0000 C   0  0
    8.7033   -5.0000    0.0000 C   0  0
   11.9467   -6.8940    0.0000 C   0  0
   10.3663  -10.1421    0.0000 C   0  0
   10.8475   -8.7811    0.0000 C   0  0
   11.0008   -9.6043    0.0000 C   0  0
  2 10  2  0
  3  7  1  0
  4  2  1  0
  5  1  1  0
  6  1  2  0
  7  4  1  0
  8  3  1  0
  9  5  2  0
 10  6  1  0
 11  4  1  0
 12  8  1  0
 13  8  2  0
 14 12  1  0
 15  3  2  0
 16 13  1  0
 17  1  1  0
 18 11  1  0
 19  6  1  0
 20  5  1  0
 21 18  2  0
 22 18  1  0
 23 17  1  0
 24 19  1  0
 25 20  1  0
 26 21  1  0
 27 22  2  0
 28 26  2  0
  9  2  1  0
 14 16  2  0
 28 27  1  0
M  END
> <COMPOUND_ID>
DNDI1417987

$$$$

  SciTegic04051205032D

 26 28  0  0  0  0            999 V2000
    7.8425   -9.1141    0.0000 S   0  0
    6.4093   -6.6429    0.0000 S   0  0
    7.1207   -6.2373    0.0000 N   0  0
    7.1173   -9.5198    0.0000 C   0  0
    7.8425   -6.6498    0.0000 C   0  0
    8.5540   -8.7017    0.0000 N   0  0
    7.8356   -7.4610    0.0000 C   0  0
    7.4301   -8.3993    0.0000 O   0  0
    8.2550   -9.8326    0.0000 O   0  0
    6.8217   -7.3612    0.0000 O   0  0
    5.9968   -5.9246    0.0000 O   0  0
    8.5540   -7.8871    0.0000 C   0  0
    8.5574   -6.2305    0.0000 C   0  0
    6.3955   -9.1141    0.0000 C   0  0
    9.2723   -6.6361    0.0000 C   0  0
    5.6978   -7.0485    0.0000 C   0  0
    7.1207   -5.4056    0.0000 C   0  0
    9.2723   -7.4678    0.0000 C   0  0
    6.3955   -8.2859    0.0000 F   0  0
    7.1104  -10.3447    0.0000 C   0  0
    7.8459   -5.0000    0.0000 C   0  0
    8.5574   -5.4124    0.0000 C   0  0
    5.6840   -9.5198    0.0000 C   0  0
    5.0000   -6.6258    0.0000 C   0  0
    6.4058  -10.7571    0.0000 C   0  0
    5.6840  -10.3447    0.0000 C   0  0
  2  3  1  0
  3  5  1  0
  4  1  1  0
  5  7  1  0
  6  1  1  0
  7 12  2  0
  8  1  2  0
  9  1  2  0
 10  2  2  0
 11  2  2  0
 12  6  1  0
 13 15  1  0
 14  4  1  0
 15 18  2  0
 16  2  1  0
 17  3  1  0
 18 12  1  0
 19 14  1  0
 20  4  2  0
 21 22  1  0
 22 13  1  0
 23 14  2  0
 24 16  1  0
 25 20  1  0
 26 25  2  0
 26 23  1  0
 13  5  2  0
 17 21  1  0
M  END
> <COMPOUND_ID>
DNDI1417988

$$$$

  SciTegic04051205032D

 28 30  0  0  0  0            999 V2000
    7.3689   -7.0934    0.0000 C   0  0
    6.5976   -7.3276    0.0000 N   0  0
    7.3918   -6.2808    0.0000 N   0  0
    6.6206   -6.0054    0.0000 C   0  0
    6.1294   -6.6618    0.0000 C   0  0
   10.1602   -8.8563    0.0000 N   0  0
    8.0254   -7.5892    0.0000 S   0  0
    8.4432   -9.0078    0.0000 C   0  0
   11.1289   -9.9122    0.0000 C   0  0
    9.3384   -8.6084    0.0000 N   0  0
   11.3079  -10.7157    0.0000 C   0  0
   12.1021  -10.9636    0.0000 C   0  0
   10.3438   -9.6689    0.0000 C   0  0
   12.7081  -10.3989    0.0000 C   0  0
    8.0805   -9.6827    0.0000 O   0  0
   11.7302   -9.3522    0.0000 C   0  0
    7.9198   -8.3881    0.0000 C   0  0
   12.5291   -9.5863    0.0000 C   0  0
    8.0575   -5.8126    0.0000 C   0  0
   12.2858  -11.7715    0.0000 O   0  0
   13.4932  -10.6468    0.0000 O   0  0
    6.3038   -5.2570    0.0000 C   0  0
    5.3168   -6.5563    0.0000 C   0  0
    9.7378  -10.2290    0.0000 C   0  0
   13.0708  -12.0103    0.0000 C   0  0
    7.9887   -5.0000    0.0000 C   0  0
    5.4958   -5.1515    0.0000 C   0  0
    5.0000   -5.8079    0.0000 C   0  0
  2  1  2  0
  3  1  1  0
  4  3  1  0
  5  2  1  0
  6 10  1  0
  7  1  1  0
  8 17  1  0
  9 13  1  0
 10  8  1  0
 11  9  2  0
 12 11  1  0
 13  6  2  0
 14 18  1  0
 15  8  2  0
 16  9  1  0
 17  7  1  0
 18 16  2  0
 19  3  1  0
 20 12  1  0
 21 14  1  0
 22  4  1  0
 23  5  1  0
 24 13  1  0
 25 20  1  0
 26 19  1  0
 27 22  2  0
 28 23  2  0
  5  4  2  0
 28 27  1  0
 14 12  2  0
M  END
> <COMPOUND_ID>
DNDI1417989

$$$$

  SciTegic04051205032D

 29 30  0  0  0  0            999 V2000
    6.4602   -7.7243    0.0000 C   0  0
    7.1809   -8.9457    0.0000 C   0  0
    6.4602   -8.5360    0.0000 C   0  0
    7.8978   -8.5360    0.0000 C   0  0
    7.1809   -7.3033    0.0000 C   0  0
    7.8978   -7.7091    0.0000 C   0  0
    9.3202   -6.0516    0.0000 C   0  0
    8.6071   -7.3033    0.0000 N   0  0
    8.6071   -6.4840    0.0000 N   0  0
   10.0485   -6.4840    0.0000 C   0  0
    5.7358   -7.3185    0.0000 C   0  0
    7.1809   -9.7839    0.0000 C   0  0
   10.7578   -6.0744    0.0000 C   0  0
   11.4822   -6.4840    0.0000 C   0  0
    5.7358   -8.9267    0.0000 O   0  0
   11.4822   -7.3033    0.0000 C   0  0
    9.3240   -5.2475    0.0000 O   0  0
   10.0485   -7.3033    0.0000 C   0  0
   10.7578   -7.7091    0.0000 C   0  0
   12.2105   -6.0896    0.0000 O   0  0
   12.2105   -7.6902    0.0000 O   0  0
    8.0116   -9.7839    0.0000 C   0  0
    7.1809  -10.5880    0.0000 C   0  0
    6.3655   -9.7839    0.0000 C   0  0
    5.0000   -6.9240    0.0000 C   0  0
    5.3375   -8.0467    0.0000 C   0  0
    6.1455   -6.5789    0.0000 C   0  0
   12.9084   -6.5181    0.0000 C   0  0
   12.9084   -7.2692    0.0000 C   0  0
  2  3  1  0
  3  1  1  0
  4  2  2  0
  5  1  2  0
  6  5  1  0
  7  9  1  0
  8  6  2  0
  9  8  1  0
 10  7  1  0
 11  1  1  0
 12  2  1  0
 13 10  1  0
 14 13  2  0
 15  3  2  0
 16 19  2  0
 17  7  2  0
 18 10  2  0
 19 18  1  0
 20 14  1  0
 21 16  1  0
 22 12  1  0
 23 12  1  0
 24 12  1  0
 25 11  1  0
 26 11  1  0
 27 11  1  0
 28 20  1  0
 29 21  1  0
  4  6  1  0
 16 14  1  0
M  END
> <COMPOUND_ID>
DNDI1417990

$$$$

  SciTegic04051205032D

 30 33  0  0  0  0            999 V2000
    9.2942   -7.4695    0.0000 C   0  0
   10.0076   -7.8811    0.0000 C   0  0
    8.5808   -7.8811    0.0000 C   0  0
   10.7210   -7.4695    0.0000 C   0  0
    8.5808   -8.7043    0.0000 N   0  0
    9.2942   -6.6417    0.0000 C   0  0
    7.8674   -9.1159    0.0000 C   0  0
    7.8674   -7.4695    0.0000 C   0  0
   11.4344   -7.8811    0.0000 N   0  0
    7.8674   -9.9344    0.0000 N   0  0
    6.4405   -6.6464    0.0000 C   0  0
    5.7271   -6.2211    0.0000 N   0  0
   10.7210   -6.6417    0.0000 C   0  0
   10.0076   -6.2211    0.0000 C   0  0
    7.8674   -6.6464    0.0000 C   0  0
    7.1539   -7.8811    0.0000 C   0  0
    6.4405   -7.4695    0.0000 C   0  0
    7.1539   -6.2348    0.0000 C   0  0
   10.0076   -8.7043    0.0000 O   0  0
   12.1524   -7.4695    0.0000 C   0  0
    7.1539  -10.3506    0.0000 C   0  0
    5.7317   -5.3979    0.0000 C   0  0
    5.0046   -6.6417    0.0000 C   0  0
    7.1539   -8.7043    0.0000 C   0  0
   11.4344   -6.2211    0.0000 C   0  0
    6.4451   -5.0000    0.0000 C   0  0
    5.0000   -7.4649    0.0000 C   0  0
   12.1524   -6.6417    0.0000 C   0  0
    6.4405   -9.9390    0.0000 C   0  0
    6.4405   -9.1159    0.0000 C   0  0
  2  1  2  0
  3  1  1  0
  4  2  1  0
  5  3  1  0
  6  1  1  0
  7  5  1  0
  8  3  1  0
  9  4  2  0
 10  7  2  0
 11 17  2  0
 12 11  1  0
 13 14  1  0
 14  6  2  0
 15  8  1  0
 16  8  2  0
 17 16  1  0
 18 15  2  0
 19  2  1  0
 20  9  1  0
 21 10  1  0
 22 12  1  0
 23 12  1  0
 24  7  1  0
 25 13  2  0
 26 22  1  0
 27 23  1  0
 28 25  1  0
 29 30  1  0
 30 24  2  0
  4 13  1  0
 18 11  1  0
 20 28  2  0
 29 21  2  0
M  END
> <COMPOUND_ID>
DNDI1417991

$$$$

  SciTegic04051205032D

 27 29  0  0  0  0            999 V2000
    7.6960   -7.0625    0.0000 C   0  0
    8.4214   -6.6299    0.0000 S   0  0
    6.9663   -6.6561    0.0000 C   0  0
    6.2585   -7.0625    0.0000 C   0  0
    7.6960   -7.8622    0.0000 C   0  0
    5.4981   -6.8353    0.0000 C   0  0
    6.2847   -7.8491    0.0000 S   0  0
    8.0107   -5.9089    0.0000 O   0  0
    8.8496   -7.3596    0.0000 O   0  0
    8.3952   -8.2686    0.0000 N   0  0
    9.1643   -6.2235    0.0000 C   0  0
    5.5113   -8.1462    0.0000 C   0  0
    5.0000   -7.4689    0.0000 C   0  0
    6.9926   -8.2817    0.0000 O   0  0
   10.5800   -9.5095    0.0000 N   0  0
    9.8459   -8.2554    0.0000 C   0  0
    9.1162   -7.8622    0.0000 C   0  0
    9.8634   -9.0944    0.0000 C   0  0
    5.2184   -6.1012    0.0000 C   0  0
   11.3141   -9.0682    0.0000 C   0  0
    9.1643   -5.4064    0.0000 C   0  0
    9.8634   -6.6649    0.0000 C   0  0
   10.5451   -7.8360    0.0000 C   0  0
   11.2792   -8.2510    0.0000 C   0  0
    9.8984   -5.0000    0.0000 C   0  0
   10.5844   -6.2891    0.0000 C   0  0
   10.5975   -5.4370    0.0000 C   0  0
  2  1  1  0
  3  1  2  0
  4  3  1  0
  5  1  1  0
  6  4  2  0
  7  4  1  0
  8  2  2  0
  9  2  2  0
 10  5  1  0
 11  2  1  0
 12  7  1  0
 13  6  1  0
 14  5  2  0
 15 18  1  0
 16 17  1  0
 17 10  1  0
 18 16  2  0
 19  6  1  0
 20 24  1  0
 21 11  1  0
 22 11  2  0
 23 16  1  0
 24 23  2  0
 25 21  2  0
 26 22  1  0
 27 26  2  0
 12 13  2  0
 25 27  1  0
 15 20  2  0
M  END
> <COMPOUND_ID>
DNDI1417992

$$$$

  SciTegic04051205032D

 28 29  0  0  0  0            999 V2000
    7.1511   -7.4663    0.0000 C   0  0
    8.5487   -7.4663    0.0000 C   0  0
    8.5487   -8.2884    0.0000 C   0  0
    7.8499   -7.0324    0.0000 C   0  0
    7.1511   -8.2884    0.0000 C   0  0
    7.8499   -8.6857    0.0000 N   0  0
    6.4250   -7.0324    0.0000 C   0  0
    9.2749   -7.0324    0.0000 C   0  0
    9.2749   -8.7177    0.0000 S   0  0
   10.0011   -6.6077    0.0000 N   0  0
   10.7226   -8.7177    0.0000 C   0  0
    7.8499   -6.2194    0.0000 C   0  0
   10.0011   -8.2884    0.0000 C   0  0
    6.4478   -6.1829    0.0000 O   0  0
   10.7226   -9.5398    0.0000 O   0  0
   11.4260   -8.2884    0.0000 C   0  0
    5.6988   -7.4298    0.0000 O   0  0
    6.4250   -8.7177    0.0000 C   0  0
    8.5487   -5.8221    0.0000 C   0  0
   12.1248   -8.7177    0.0000 C   0  0
   11.4260   -7.4663    0.0000 C   0  0
    5.6988   -8.2884    0.0000 C   0  0
    8.5487   -5.0000    0.0000 C   0  0
    9.2566   -6.2194    0.0000 C   0  0
    5.0000   -8.6857    0.0000 C   0  0
   12.1248   -7.0735    0.0000 C   0  0
   12.8236   -8.2884    0.0000 C   0  0
   12.8236   -7.4663    0.0000 C   0  0
  2  4  1  0
  3  6  1  0
  4  1  1  0
  5  1  2  0
  6  5  1  0
  7  1  1  0
  8  2  1  0
  9  3  1  0
 10  8  3  0
 11 13  1  0
 12  4  1  0
 13  9  1  0
 14  7  2  0
 15 11  2  0
 16 11  1  0
 17  7  1  0
 18  5  1  0
 19 12  1  0
 20 16  2  0
 21 16  1  0
 22 17  1  0
 23 19  1  0
 24 19  1  0
 25 22  1  0
 26 21  2  0
 27 20  1  0
 28 26  1  0
  3  2  2  0
 27 28  2  0
M  END
> <COMPOUND_ID>
DNDI1417993

$$$$

  SciTegic04051205032D

 26 29  0  0  0  0            999 V2000
    7.7213   -8.6153    0.0000 N   0  0
    7.5237   -9.9890    0.0000 N   0  0
    7.1236   -9.2307    0.0000 C   0  0
    8.4877   -8.9945    0.0000 N   0  0
    8.3656   -9.8396    0.0000 N   0  0
    7.5703   -7.7798    0.0000 C   0  0
    6.9597  -10.4952    0.0000 C   0  0
    6.6416  -11.2953    0.0000 C   0  0
    5.9957  -10.7555    0.0000 O   0  0
    6.4247  -10.6382    0.0000 C   0  0
    6.7717   -7.4874    0.0000 C   0  0
    5.2678  -10.7490    0.0000 C   0  0
    5.5426  -10.1947    0.0000 C   0  0
    8.2307   -7.2319    0.0000 C   0  0
    5.1650  -11.3339    0.0000 O   0  0
    8.0877   -6.3883    0.0000 C   0  0
    6.2753   -9.1069    0.0000 S   0  0
    6.6223   -6.6470    0.0000 C   0  0
    7.2811   -6.0959    0.0000 C   0  0
    5.9121  -11.7436    0.0000 C   0  0
    5.2727   -9.3801    0.0000 O   0  0
    7.1333   -5.2475    0.0000 Cl  0  0
    9.0356   -7.5339    0.0000 O   0  0
    5.8157   -6.3465    0.0000 O   0  0
    9.6960   -6.9861    0.0000 C   0  0
    5.1602   -6.8977    0.0000 C   0  0
  2  3  1  0
  3  1  1  0
  4  1  1  0
  5  4  2  0
  6  1  1  0
  7  2  1  0
  8  7  1  0
  9  8  1  0
 10  7  1  0
 11  6  1  0
 12 13  1  0
 13 10  1  0
 14  6  2  0
 15 20  1  0
 16 14  1  0
 17  3  2  0
 18 11  2  0
 19 16  2  0
 20  8  1  0
 21 13  2  0
 22 19  1  0
 23 14  1  0
 24 18  1  0
 25 23  1  0
 26 24  1  0
  5  2  1  0
 19 18  1  0
 12  9  1  0
 12 15  1  0
M  END
> <COMPOUND_ID>
DNDI1417994

$$$$

  SciTegic04051205032D

 28 31  0  0  0  0            999 V2000
    8.4704   -7.1183    0.0000 C   0  0
    9.1933   -7.5266    0.0000 C   0  0
    7.7547   -7.5266    0.0000 C   0  0
    9.9042   -7.1183    0.0000 C   0  0
    8.4704   -6.2922    0.0000 C   0  0
    9.9042   -6.2922    0.0000 C   0  0
    9.1933   -5.8815    0.0000 C   0  0
    7.0342   -7.1183    0.0000 C   0  0
    7.7451   -8.3552    0.0000 N   0  0
    6.3209   -5.8839    0.0000 C   0  0
    7.0342   -6.2922    0.0000 C   0  0
    7.0294   -8.7610    0.0000 C   0  0
   10.6151   -7.5266    0.0000 N   0  0
    5.6076   -6.2994    0.0000 C   0  0
    6.1480   -5.0745    0.0000 O   0  0
    5.0000   -5.7518    0.0000 O   0  0
    5.3339   -5.0000    0.0000 C   0  0
    6.3209   -7.5266    0.0000 C   0  0
    6.3065   -8.3504    0.0000 O   0  0
    5.6076   -7.1183    0.0000 C   0  0
    9.1933   -8.3504    0.0000 O   0  0
    9.1933   -5.0577    0.0000 Cl  0  0
   10.6079   -5.8815    0.0000 C   0  0
    7.0174   -9.5896    0.0000 C   0  0
   11.3332   -7.1159    0.0000 C   0  0
    6.2921  -10.0123    0.0000 C   0  0
   11.3332   -6.2874    0.0000 C   0  0
    6.2921  -10.8385    0.0000 C   0  0
  2  1  2  0
  3  1  1  0
  4  2  1  0
  5  1  1  0
  6  7  1  0
  7  5  2  0
  8  3  1  0
  9  3  1  0
 10 11  2  0
 11  8  1  0
 12  9  1  0
 13  4  2  0
 14 20  2  0
 15 10  1  0
 16 14  1  0
 17 15  1  0
 18  8  2  0
 19 12  2  0
 20 18  1  0
 21  2  1  0
 22  7  1  0
 23  6  2  0
 24 12  1  0
 25 13  1  0
 26 24  1  0
 27 23  1  0
 28 26  1  0
  6  4  1  0
 27 25  2  0
 14 10  1  0
 17 16  1  0
M  END
> <COMPOUND_ID>
DNDI1417995

$$$$

  SciTegic04051205032D

 25 27  0  0  0  0            999 V2000
    7.8536   -6.9116    0.0000 C   0  0
    7.8536   -7.7259    0.0000 C   0  0
    7.1354   -6.4979    0.0000 C   0  0
    7.1354   -8.1332    0.0000 C   0  0
    8.5879   -6.4819    0.0000 N   0  0
    6.4364   -6.9116    0.0000 C   0  0
    6.4364   -7.7259    0.0000 C   0  0
    8.5943   -5.6611    0.0000 C   0  0
    9.3093   -6.8955    0.0000 C   0  0
    7.1354   -5.6771    0.0000 O   0  0
    8.5879   -8.1556    0.0000 N   0  0
    7.1354   -8.9636    0.0000 O   0  0
    7.8921   -5.2475    0.0000 O   0  0
    9.3093   -7.7259    0.0000 C   0  0
   10.0051   -6.4819    0.0000 C   0  0
   10.7265   -7.7259    0.0000 C   0  0
   10.0051   -8.1332    0.0000 C   0  0
   10.7265   -6.8955    0.0000 C   0  0
   11.4608   -8.1332    0.0000 Br  0  0
    5.7182   -6.4979    0.0000 C   0  0
    5.7182   -8.1332    0.0000 C   0  0
    9.3253   -5.2475    0.0000 C   0  0
    8.5943   -8.9668    0.0000 C   0  0
    5.0000   -7.7259    0.0000 C   0  0
    5.0000   -6.9116    0.0000 C   0  0
  2  1  2  0
  3  1  1  0
  4  2  1  0
  5  1  1  0
  6  3  1  0
  7  6  2  0
  8  5  1  0
  9  5  1  0
 10  3  2  0
 11  2  1  0
 12  4  2  0
 13  8  2  0
 14  9  1  0
 15  9  2  0
 16 17  1  0
 17 14  2  0
 18 15  1  0
 19 16  1  0
 20  6  1  0
 21  7  1  0
 22  8  1  0
 23 11  1  0
 24 21  2  0
 25 20  2  0
  7  4  1  0
 24 25  1  0
 16 18  2  0
M  END
> <COMPOUND_ID>
DNDI1417996

$$$$

  SciTegic04051205032D

 27 29  0  0  0  0            999 V2000
    8.9869   -7.6622    0.0000 C   0  0
    8.9869   -6.8573    0.0000 C   0  0
    9.6780   -6.4508    0.0000 N   0  0
    8.2756   -8.0606    0.0000 C   0  0
    7.5885   -7.6500    0.0000 N   0  0
    6.1901   -7.6460    0.0000 C   0  0
   11.0683   -6.4508    0.0000 N   0  0
   10.3732   -6.8533    0.0000 C   0  0
    6.8853   -8.0484    0.0000 N   0  0
    8.2756   -6.4508    0.0000 C   0  0
    5.4950   -8.0484    0.0000 N   0  0
    8.2756   -8.8655    0.0000 C   0  0
    9.6739   -5.6499    0.0000 C   0  0
   11.0683   -5.6459    0.0000 C   0  0
    8.2756   -5.6459    0.0000 C   0  0
    7.5804   -6.8573    0.0000 C   0  0
    8.9666   -9.2680    0.0000 C   0  0
    7.5682   -9.2558    0.0000 C   0  0
    6.1860   -6.8411    0.0000 N   0  0
    6.8853   -5.6459    0.0000 C   0  0
    8.2593  -10.4671    0.0000 C   0  0
    7.5804   -5.2435    0.0000 C   0  0
    6.8853   -6.4508    0.0000 C   0  0
    7.5641  -10.0607    0.0000 C   0  0
    8.9585  -10.0607    0.0000 C   0  0
    6.1901   -5.2475    0.0000 Cl  0  0
    8.2512  -11.2720    0.0000 Cl  0  0
  2  1  2  0
  3  2  1  0
  4  1  1  0
  5  4  2  0
  6  9  1  0
  7  8  2  0
  8  3  1  0
  9  5  1  0
 10  2  1  0
 11  6  2  0
 12  4  1  0
 13  3  1  0
 14 13  2  0
 15 10  1  0
 16 10  2  0
 17 12  1  0
 18 12  2  0
 19  6  1  0
 20 23  2  0
 21 25  1  0
 22 15  2  0
 23 16  1  0
 24 18  1  0
 25 17  2  0
 26 20  1  0
 27 21  1  0
 21 24  2  0
  7 14  1  0
 20 22  1  0
M  END
> <COMPOUND_ID>
DNDI1417997

$$$$

  SciTegic04051205032D

 29 31  0  0  0  0            999 V2000
    9.5986   -8.5580    0.0000 N   0  0
   11.2587   -7.1427    0.0000 N   0  0
   10.0127   -7.8341    0.0000 C   0  0
   10.8481   -7.8341    0.0000 C   0  0
   10.0127   -9.2853    0.0000 C   0  0
   12.0941   -5.6915    0.0000 N   0  0
    8.7739   -8.5580    0.0000 C   0  0
   10.8481   -6.4153    0.0000 C   0  0
   12.0941   -7.1427    0.0000 C   0  0
    7.1138   -8.5580    0.0000 C   0  0
   10.8481   -9.2853    0.0000 O   0  0
   11.2587   -8.5580    0.0000 C   0  0
    8.3598   -7.8341    0.0000 C   0  0
    8.3598   -9.2853    0.0000 C   0  0
    7.5423   -7.8341    0.0000 C   0  0
    7.5423   -9.2853    0.0000 C   0  0
   11.2587   -5.6915    0.0000 C   0  0
   12.4902   -6.4153    0.0000 C   0  0
    6.3036   -8.5580    0.0000 C   0  0
    9.5986   -9.9767    0.0000 C   0  0
   12.5083   -5.0000    0.0000 C   0  0
   12.0941   -8.5580    0.0000 C   0  0
    5.7166   -7.9889    0.0000 C   0  0
    5.9218   -9.2853    0.0000 C   0  0
   12.4902   -9.2853    0.0000 C   0  0
   10.0127  -10.7042    0.0000 C   0  0
   12.4902   -7.8341    0.0000 C   0  0
    5.0000   -8.3707    0.0000 C   0  0
    5.1044   -9.1197    0.0000 C   0  0
  2  4  1  0
  3  1  1  0
  4  3  1  0
  5  1  1  0
  6 17  1  0
  7  1  1  0
  8  2  1  0
  9  2  1  0
 10 16  2  0
 11  5  2  0
 12  4  1  0
 13  7  1  0
 14  7  2  0
 15 13  2  0
 16 14  1  0
 17  8  1  0
 18  9  1  0
 19 10  1  0
 20  5  1  0
 21  6  1  0
 22 12  1  0
 23 19  1  0
 24 19  1  0
 25 22  1  0
 26 20  1  0
 27 22  1  0
 28 23  1  0
 29 24  1  0
 10 15  1  0
  6 18  1  0
 29 28  1  0
M  END
> <COMPOUND_ID>
DNDI1417998

$$$$

  SciTegic04051205032D

 28 30  0  0  0  0            999 V2000
    6.3438  -10.2757    0.0000 N   0  0
    6.4332   -9.4577    0.0000 N   0  0
    7.1034  -10.6194    0.0000 N   0  0
    7.2408   -9.2858    0.0000 C   0  0
    7.6567  -10.0041    0.0000 C   0  0
    9.7189   -9.2858    0.0000 C   0  0
   10.1348   -8.5675    0.0000 N   0  0
    8.8975   -9.2858    0.0000 C   0  0
   11.3755   -7.8561    0.0000 C   0  0
   12.1970   -7.8561    0.0000 N   0  0
    8.4816  -10.0041    0.0000 C   0  0
   12.6128   -7.1377    0.0000 C   0  0
    7.6567   -8.5675    0.0000 C   0  0
   13.4309   -7.1274    0.0000 C   0  0
   10.9665   -8.5675    0.0000 C   0  0
    8.4816   -8.5675    0.0000 C   0  0
   10.1348  -10.0041    0.0000 O   0  0
    5.7148   -9.0418    0.0000 C   0  0
   13.8433   -6.4366    0.0000 C   0  0
   10.9665   -7.1377    0.0000 O   0  0
   12.2107   -6.4159    0.0000 C   0  0
   13.8364   -7.8458    0.0000 Cl  0  0
   13.4515   -5.7217    0.0000 C   0  0
   12.6231   -5.7183    0.0000 C   0  0
    9.7189   -7.8561    0.0000 C   0  0
    5.7148   -8.2203    0.0000 C   0  0
    5.0000   -9.4577    0.0000 C   0  0
   13.8571   -5.0000    0.0000 C   0  0
  2  1  1  0
  3  1  2  0
  4  2  1  0
  5  3  1  0
  6  8  1  0
  7  6  1  0
  8 11  2  0
  9 15  1  0
 10  9  1  0
 11  5  1  0
 12 10  1  0
 13  4  1  0
 14 12  2  0
 15  7  1  0
 16 13  2  0
 17  6  2  0
 18  2  1  0
 19 14  1  0
 20  9  2  0
 21 12  1  0
 22 14  1  0
 23 24  1  0
 24 21  2  0
 25  7  1  0
 26 18  1  0
 27 18  1  0
 28 23  1  0
  5  4  2  0
  8 16  1  0
 19 23  2  0
M  END
> <COMPOUND_ID>
DNDI1417999

$$$$

  SciTegic04051205032D

 30 35  0  0  0  0            999 V2000
   10.2486   -6.3135    0.0000 N   0  0
    9.1100   -6.6662    0.0000 C   0  0
    9.8098   -6.9050    0.0000 C   0  0
    9.8237   -5.7136    0.0000 C   0  0
    9.1184   -5.9247    0.0000 C   0  0
    6.9245   -6.9411    0.0000 C   0  0
    6.9245   -5.4637    0.0000 C   0  0
    6.2830   -6.5717    0.0000 C   0  0
    7.5604   -6.5717    0.0000 C   0  0
    7.5604   -5.8331    0.0000 C   0  0
    6.2830   -5.8331    0.0000 C   0  0
   10.9928   -6.3413    0.0000 C   0  0
   11.3844   -5.7220    0.0000 C   0  0
   10.0348   -7.6076    0.0000 O   0  0
   10.0514   -5.0000    0.0000 O   0  0
   12.1314   -5.7470    0.0000 C   0  0
   11.3400   -6.9994    0.0000 C   0  0
   12.4813   -6.3968    0.0000 C   0  0
    8.8768   -7.3632    0.0000 C   0  0
   11.0428   -5.0555    0.0000 O   0  0
   12.0814   -7.0300    0.0000 C   0  0
    8.2019   -5.4637    0.0000 C   0  0
    5.6415   -6.9411    0.0000 C   0  0
    5.6415   -5.4637    0.0000 C   0  0
    8.2019   -6.9411    0.0000 C   0  0
   13.2311   -6.4079    0.0000 Cl  0  0
    5.0000   -6.5717    0.0000 C   0  0
    5.0000   -5.8331    0.0000 C   0  0
    8.8406   -5.8331    0.0000 C   0  0
    8.8406   -6.5717    0.0000 C   0  0
  2  3  1  0
  3  1  1  0
  4  1  1  0
  5  4  1  0
  6  2  1  0
  7  5  1  0
  8  6  1  0
  9  6  1  0
 10  7  1  0
 11  7  1  0
 12  1  1  0
 13 12  1  0
 14  3  2  0
 15  4  2  0
 16 13  2  0
 17 12  2  0
 18 21  2  0
 19  2  1  0
 20 13  1  0
 21 17  1  0
 22 10  1  0
 23  8  2  0
 24 11  2  0
 25  9  1  0
 26 18  1  0
 27 23  1  0
 28 24  1  0
 29 22  2  0
 30 25  2  0
  5  2  1  0
 18 16  1  0
 11  8  1  0
 10  9  2  0
 28 27  2  0
 30 29  1  0
M  END
> <COMPOUND_ID>
DNDI1418000

$$$$

  SciTegic04051205032D

 28 31  0  0  0  0            999 V2000
    2.9694    6.4519    0.0000 C   0  0
    2.9682    5.6246    0.0000 C   0  0
    3.6831    5.2117    0.0000 C   0  0
    3.6813    6.8647    0.0000 C   0  0
    5.1834    6.7142    0.0000 N   0  0
    4.3966    6.4556    0.0000 C   0  0
    4.4006    5.6268    0.0000 C   0  0
    5.1907    5.3758    0.0000 N   0  0
    5.6723    6.0503    0.0000 C   0  0
    6.4973    6.0564    0.0000 N   0  0
    5.4514    4.5931    0.0000 C   0  0
    4.9039    3.9759    0.0000 C   0  0
    5.1647    3.1932    0.0000 N   0  0
    4.6136    2.5785    0.0000 C   0  0
    4.8713    1.7986    0.0000 C   0  0
    5.6790    1.6288    0.0000 C   0  0
    6.2286    2.2454    0.0000 C   0  0
    5.9705    3.0317    0.0000 C   0  0
    5.1792    7.5394    0.0000 C   0  0
    5.8915    7.9555    0.0000 C   0  0
    5.8873    8.7805    0.0000 O   0  0
    6.5997    9.1966    0.0000 C   0  0
    7.3150    8.7856    0.0000 C   0  0
    8.0269    9.2011    0.0000 C   0  0
    8.0231   10.0269    0.0000 C   0  0
    7.3016   10.4356    0.0000 C   0  0
    6.5926   10.0178    0.0000 C   0  0
    6.9045    6.7739    0.0000 H   0  0
 12 13  1  0
 13 14  1  0
  2  3  1  0
  3  7  2  0
  5  6  1  0
  7  8  1  0
 13 18  1  0
 14 15  1  0
 15 16  1  0
 16 17  1  0
 17 18  1  0
  5  9  1  0
  9  8  1  0
  5 19  1  0
  6  4  2  0
 19 20  1  0
  9 10  2  0
 20 21  1  0
  4  1  1  0
 21 22  1  0
 22 23  2  0
  6  7  1  0
 23 24  1  0
  8 11  1  0
 24 25  2  0
  1  2  2  0
 25 26  1  0
 11 12  1  0
 26 27  2  0
 27 22  1  0
 10 28  1  0
M  END
> <COMPOUND_ID>
DNDI985009

$$$$
