
  SciTegic03121405412D

 32 35  0  0  0  0            999 V2000
    7.8548   -8.7133    0.0000 C   0  0
    8.5674   -8.2966    0.0000 N   0  0
   12.8434   -5.8252    0.0000 C   0  0
    9.9927   -7.4714    0.0000 N   0  0
    7.8590   -9.5385    0.0000 C   0  0
   12.1307   -6.2378    0.0000 C   0  0
   10.7054   -7.0588    0.0000 C   0  0
    7.1463   -9.9553    0.0000 C   0  0
    7.1380   -8.3049    0.0000 O   0  0
    8.5591   -7.4756    0.0000 C   0  0
    9.2801   -8.7092    0.0000 C   0  0
    9.9886   -8.3007    0.0000 C   0  0
    9.2759   -7.0630    0.0000 C   0  0
    9.2884  -11.1805    0.0000 N   0  0
    8.5758   -9.9469    0.0000 C   0  0
   11.4097   -5.8252    0.0000 C   0  0
   12.1307   -7.0630    0.0000 C   0  0
   10.6971   -6.2420    0.0000 C   0  0
   11.4139   -7.4756    0.0000 C   0  0
   13.5602   -6.2378    0.0000 F   0  0
   12.8434   -5.0000    0.0000 F   0  0
   13.0601   -6.6212    0.0000 F   0  0
    6.4295   -9.5427    0.0000 C   0  0
    7.1463  -10.7846    0.0000 C   0  0
    5.7168  -10.7846    0.0000 C   0  0
    5.7168   -9.9553    0.0000 C   0  0
    6.4295  -11.1972    0.0000 C   0  0
    5.0000  -11.1972    0.0000 Cl  0  0
    8.5758  -10.7721    0.0000 C   0  0
   10.0052  -10.7638    0.0000 C   0  0
    9.2801   -9.5302    0.0000 C   0  0
    9.9969   -9.9344    0.0000 C   0  0
  2  1  1  0
  3  6  1  0
  4 13  1  0
  5  1  1  0
  6 16  1  0
  7  4  1  0
  8  5  1  0
  9  1  2  0
 10  2  1  0
 11  2  1  0
 12 11  1  0
 13 10  1  0
 14 29  1  0
 15  5  1  0
 16 18  2  0
 17 19  1  0
 18  7  1  0
 19  7  2  0
 20  3  1  0
 21  3  1  0
 22  3  1  0
 23  8  2  0
 24  8  1  0
 25 26  2  0
 26 23  1  0
 27 24  2  0
 28 25  1  0
 29 15  2  0
 30 14  2  0
 31 15  1  0
 32 31  2  0
  4 12  1  0
 27 25  1  0
 32 30  1  0
  6 17  2  0
M  END
> <COMPOUND_ID>
DNDI1697549

$$$$

  SciTegic03121405412D

 32 35  0  0  0  0            999 V2000
    7.8548   -8.7133    0.0000 C   0  0
   12.8434   -5.8252    0.0000 C   0  0
    8.5674   -8.2966    0.0000 N   0  0
    9.9927   -7.4714    0.0000 N   0  0
   12.1307   -6.2378    0.0000 C   0  0
   10.7054   -7.0588    0.0000 C   0  0
   10.6971   -6.2420    0.0000 N   0  0
    7.8590   -9.5385    0.0000 C   0  0
   11.4097   -5.8252    0.0000 C   0  0
    7.1463   -9.9553    0.0000 C   0  0
    7.1380   -8.3049    0.0000 O   0  0
    8.5591   -7.4756    0.0000 C   0  0
    9.2801   -8.7092    0.0000 C   0  0
    9.9886   -8.3007    0.0000 C   0  0
    9.2759   -7.0630    0.0000 C   0  0
   12.1307   -7.0630    0.0000 C   0  0
   11.4139   -7.4756    0.0000 C   0  0
    9.2884  -11.1805    0.0000 N   0  0
    8.5758   -9.9469    0.0000 C   0  0
   13.5602   -6.2378    0.0000 F   0  0
   12.8434   -5.0000    0.0000 F   0  0
   13.0601   -6.6212    0.0000 F   0  0
    6.4295   -9.5427    0.0000 C   0  0
    7.1463  -10.7846    0.0000 C   0  0
    5.7168  -10.7846    0.0000 C   0  0
    5.7168   -9.9553    0.0000 C   0  0
    6.4295  -11.1972    0.0000 C   0  0
    5.0000  -11.1972    0.0000 Cl  0  0
    8.5758  -10.7721    0.0000 C   0  0
   10.0052  -10.7638    0.0000 C   0  0
    9.2801   -9.5302    0.0000 C   0  0
    9.9969   -9.9344    0.0000 C   0  0
  2  5  1  0
  3  1  1  0
  4 15  1  0
  5  9  1  0
  6  4  1  0
  7  6  1  0
  8  1  1  0
  9  7  2  0
 10  8  1  0
 11  1  2  0
 12  3  1  0
 13  3  1  0
 14 13  1  0
 15 12  1  0
 16 17  1  0
 17  6  2  0
 18 29  1  0
 19  8  1  0
 20  2  1  0
 21  2  1  0
 22  2  1  0
 23 10  2  0
 24 10  1  0
 25 26  2  0
 26 23  1  0
 27 24  2  0
 28 25  1  0
 29 19  2  0
 30 18  2  0
 31 19  1  0
 32 31  2  0
  4 14  1  0
 32 30  1  0
 27 25  1  0
  5 16  2  0
M  END
> <COMPOUND_ID>
DNDI1800292

$$$$

  SciTegic03121405412D

 32 35  0  0  0  0            999 V2000
   12.8452   -5.7169    0.0000 S   0  0
    7.8555   -8.6057    0.0000 C   0  0
    8.5683   -8.1889    0.0000 N   0  0
    9.9939   -7.3635    0.0000 N   0  0
    7.8596   -9.4311    0.0000 C   0  0
   12.1324   -6.1296    0.0000 C   0  0
   10.7067   -6.9508    0.0000 C   0  0
   12.4283   -5.0000    0.0000 O   0  0
   13.2537   -6.4298    0.0000 O   0  0
    7.1468   -9.8480    0.0000 C   0  0
    7.1385   -8.1972    0.0000 O   0  0
    8.5599   -7.3677    0.0000 C   0  0
    9.2811   -8.6016    0.0000 C   0  0
    9.9897   -8.1931    0.0000 C   0  0
    9.2769   -6.9550    0.0000 C   0  0
    9.2894  -11.0735    0.0000 N   0  0
    8.5766   -9.8396    0.0000 C   0  0
   11.4112   -5.7169    0.0000 C   0  0
   12.1324   -6.9550    0.0000 C   0  0
   10.6984   -6.1338    0.0000 C   0  0
   11.4154   -7.3677    0.0000 C   0  0
    7.1468  -10.6775    0.0000 C   0  0
    6.4298   -9.4353    0.0000 C   0  0
   13.5539   -5.3001    0.0000 C   0  0
    5.7170  -10.6775    0.0000 C   0  0
    5.7170   -9.8521    0.0000 C   0  0
    6.4298  -11.0902    0.0000 C   0  0
    5.0000  -11.0902    0.0000 Cl  0  0
    8.5766  -10.6650    0.0000 C   0  0
   10.0064  -10.6567    0.0000 C   0  0
    9.2811   -9.4228    0.0000 C   0  0
    9.9981   -9.8271    0.0000 C   0  0
  2  3  1  0
  3 12  1  0
  4  7  1  0
  5  2  1  0
  6  1  1  0
  7 20  1  0
  8  1  2  0
  9  1  2  0
 10  5  1  0
 11  2  2  0
 12 15  1  0
 13 14  1  0
 14  4  1  0
 15  4  1  0
 16 29  1  0
 17  5  1  0
 18  6  1  0
 19  6  2  0
 20 18  2  0
 21 19  1  0
 22 10  1  0
 23 10  2  0
 24  1  1  0
 25 26  2  0
 26 23  1  0
 27 22  2  0
 28 25  1  0
 29 17  2  0
 30 16  2  0
 31 17  1  0
 32 31  2  0
 21  7  2  0
 13  3  1  0
 32 30  1  0
 27 25  1  0
M  END
> <COMPOUND_ID>
DNDI1800293

$$$$

  SciTegic03121405412D

 32 35  0  0  0  0            999 V2000
    7.8550   -8.7136    0.0000 C   0  0
    8.5677   -8.2968    0.0000 N   0  0
   12.8439   -5.8252    0.0000 C   0  0
    9.9931   -7.4715    0.0000 N   0  0
    7.8592   -9.5388    0.0000 C   0  0
   11.4102   -5.8252    0.0000 N   0  0
   12.1312   -6.2378    0.0000 C   0  0
   10.7058   -7.0589    0.0000 C   0  0
    7.1465   -9.9556    0.0000 C   0  0
    7.1381   -8.3051    0.0000 O   0  0
    9.2804   -8.7094    0.0000 C   0  0
    8.5594   -7.4757    0.0000 C   0  0
    9.2762   -7.0631    0.0000 C   0  0
   10.6975   -6.2420    0.0000 C   0  0
    9.9889   -8.3009    0.0000 C   0  0
    9.2887  -11.1809    0.0000 N   0  0
    8.5760   -9.9472    0.0000 C   0  0
   12.1312   -7.0631    0.0000 C   0  0
   11.4143   -7.4757    0.0000 C   0  0
   13.5608   -6.2378    0.0000 F   0  0
   12.8439   -5.0000    0.0000 F   0  0
   13.0607   -6.6213    0.0000 F   0  0
    6.4296   -9.5430    0.0000 C   0  0
    7.1465  -10.7850    0.0000 C   0  0
    5.7169  -10.7850    0.0000 C   0  0
    5.7169   -9.9597    0.0000 C   0  0
    6.4296  -11.1976    0.0000 C   0  0
    5.0000  -11.1976    0.0000 Cl  0  0
    8.5760  -10.7725    0.0000 C   0  0
   10.0056  -10.7641    0.0000 C   0  0
    9.2804   -9.5305    0.0000 C   0  0
    9.9973   -9.9347    0.0000 C   0  0
  2  1  1  0
  3  7  1  0
  4 13  1  0
  5  1  1  0
  6 14  2  0
  7  6  1  0
  8  4  1  0
  9  5  1  0
 10  1  2  0
 11  2  1  0
 12  2  1  0
 13 12  1  0
 14  8  1  0
 15 11  1  0
 16 29  1  0
 17  5  1  0
 18 19  1  0
 19  8  2  0
 20  3  1  0
 21  3  1  0
 22  3  1  0
 23  9  2  0
 24  9  1  0
 25 26  2  0
 26 23  1  0
 27 24  2  0
 28 25  1  0
 29 17  2  0
 30 16  2  0
 31 17  1  0
 32 31  2  0
  4 15  1  0
 32 30  1  0
 27 25  1  0
  7 18  2  0
M  END
> <COMPOUND_ID>
DNDI1800294

$$$$

  SciTegic03121405412D

 33 36  0  0  0  0            999 V2000
    7.9308   -6.2340    0.0000 S   0  0
    6.5092   -6.2382    0.0000 C   0  0
    7.2221   -6.6509    0.0000 N   0  0
    5.7963  -12.4209    0.0000 C   0  0
    5.7921   -7.4722    0.0000 N   0  0
    5.7921   -9.1148    0.0000 N   0  0
    5.7921   -6.6467    0.0000 C   0  0
    8.5187   -6.8135    0.0000 O   0  0
    7.9308   -5.4085    0.0000 O   0  0
    5.7963  -11.5954    0.0000 C   0  0
    5.7963   -9.9403    0.0000 C   0  0
    8.6437   -5.8129    0.0000 C   0  0
    6.5092   -7.8849    0.0000 C   0  0
    5.0792   -7.8849    0.0000 C   0  0
    6.5092   -8.7104    0.0000 C   0  0
    5.0750   -8.7146    0.0000 C   0  0
    5.7963   -5.0000    0.0000 N   0  0
    5.0834  -11.1827    0.0000 C   0  0
    6.5134  -11.1827    0.0000 C   0  0
    5.0834  -10.3530    0.0000 C   0  0
    6.5134  -10.3530    0.0000 C   0  0
    5.0834  -12.8336    0.0000 F   0  0
    6.5134  -12.8336    0.0000 F   0  0
    5.0000  -12.2082    0.0000 F   0  0
    6.5092   -5.4127    0.0000 C   0  0
    5.0792   -6.2382    0.0000 C   0  0
    9.3566   -6.2257    0.0000 C   0  0
    5.0792   -5.4169    0.0000 C   0  0
    9.3566   -7.0511    0.0000 C   0  0
   10.0696   -5.8171    0.0000 C   0  0
   10.7783   -6.2257    0.0000 C   0  0
   10.0654   -7.4639    0.0000 C   0  0
   10.7825   -7.0553    0.0000 C   0  0
  2  3  1  0
  3  1  1  0
  4 10  1  0
  5  7  1  0
  6 16  1  0
  7  2  2  0
  8  1  2  0
  9  1  2  0
 10 18  1  0
 11  6  1  0
 12  1  1  0
 13  5  1  0
 14  5  1  0
 15 13  1  0
 16 14  1  0
 17 25  2  0
 18 20  2  0
 19 21  1  0
 20 11  1  0
 21 11  2  0
 22  4  1  0
 23  4  1  0
 24  4  1  0
 25  2  1  0
 26  7  1  0
 27 12  1  0
 28 17  1  0
 29 27  2  0
 30 27  1  0
 31 30  2  0
 32 29  1  0
 33 31  1  0
 33 32  2  0
 26 28  2  0
 15  6  1  0
 19 10  2  0
M  END
> <COMPOUND_ID>
DNDI1808272

$$$$

  SciTegic03121405412D

 33 36  0  0  0  0            999 V2000
   13.5609   -5.7169    0.0000 S   0  0
    8.5719   -8.6052    0.0000 C   0  0
    9.2846   -8.1885    0.0000 N   0  0
   10.7100   -7.3632    0.0000 N   0  0
    8.5761   -9.4305    0.0000 C   0  0
    5.0000  -11.4936    0.0000 N   0  0
   12.8481   -6.1295    0.0000 C   0  0
    5.7169  -11.0893    0.0000 C   0  0
   11.4227   -6.9506    0.0000 C   0  0
   13.1399   -5.0000    0.0000 O   0  0
   14.1402   -6.3004    0.0000 O   0  0
    7.8633   -9.8473    0.0000 C   0  0
    7.8550   -8.1968    0.0000 O   0  0
    9.2763   -7.3674    0.0000 C   0  0
    9.9973   -8.6011    0.0000 C   0  0
   10.7058   -8.1926    0.0000 C   0  0
    9.9931   -6.9548    0.0000 C   0  0
   10.0056  -11.0726    0.0000 N   0  0
    9.2929   -9.8389    0.0000 C   0  0
   12.1271   -5.7169    0.0000 C   0  0
   12.8481   -6.9548    0.0000 C   0  0
   11.4144   -6.1337    0.0000 C   0  0
   12.1313   -7.3674    0.0000 C   0  0
    7.8633  -10.6767    0.0000 C   0  0
    7.1465   -9.4347    0.0000 C   0  0
    6.4338  -10.6767    0.0000 C   0  0
   14.2736   -5.3001    0.0000 C   0  0
    6.4338   -9.8515    0.0000 C   0  0
    7.1465  -11.0893    0.0000 C   0  0
    9.2929  -10.6642    0.0000 C   0  0
   10.7225  -10.6559    0.0000 C   0  0
    9.9973   -9.4222    0.0000 C   0  0
   10.7142   -9.8264    0.0000 C   0  0
  2  3  1  0
  3 14  1  0
  4  9  1  0
  5  2  1  0
  6  8  3  0
  7  1  1  0
  8 26  1  0
  9 22  1  0
 10  1  2  0
 11  1  2  0
 12  5  1  0
 13  2  2  0
 14 17  1  0
 15 16  1  0
 16  4  1  0
 17  4  1  0
 18 30  1  0
 19  5  1  0
 20  7  1  0
 21  7  2  0
 22 20  2  0
 23 21  1  0
 24 12  1  0
 25 12  2  0
 26 28  2  0
 27  1  1  0
 28 25  1  0
 29 24  2  0
 30 19  2  0
 31 33  1  0
 32 19  1  0
 33 32  2  0
 23  9  2  0
 15  3  1  0
 29 26  1  0
 31 18  2  0
M  END
> <COMPOUND_ID>
DNDI1808297

$$$$

  SciTegic03121405412D

 33 36  0  0  0  0            999 V2000
    8.5753   -8.7129    0.0000 C   0  0
    9.2879   -8.2962    0.0000 N   0  0
   13.5633   -5.8251    0.0000 C   0  0
   10.7130   -7.4711    0.0000 N   0  0
    8.5795   -9.5379    0.0000 C   0  0
   12.1298   -5.8251    0.0000 N   0  0
   12.8507   -6.2376    0.0000 C   0  0
    5.0000  -11.6048    0.0000 N   0  0
    5.7209  -11.1964    0.0000 C   0  0
   11.4256   -7.0585    0.0000 C   0  0
    7.8669   -9.9546    0.0000 C   0  0
    7.8586   -8.3045    0.0000 O   0  0
   10.0005   -8.7087    0.0000 C   0  0
    9.2796   -7.4752    0.0000 C   0  0
    9.9963   -7.0627    0.0000 C   0  0
   11.4173   -6.2418    0.0000 C   0  0
   10.7089   -8.3003    0.0000 C   0  0
   10.0088  -11.1798    0.0000 N   0  0
    9.2962   -9.9463    0.0000 C   0  0
   12.8507   -7.0627    0.0000 C   0  0
   12.1340   -7.4752    0.0000 C   0  0
   14.2800   -6.2376    0.0000 F   0  0
   13.5633   -5.0000    0.0000 F   0  0
   13.7800   -6.6210    0.0000 F   0  0
    7.1502   -9.5421    0.0000 C   0  0
    7.8669  -10.7839    0.0000 C   0  0
    6.4376  -10.7839    0.0000 C   0  0
    6.4376   -9.9546    0.0000 C   0  0
    7.1502  -11.1964    0.0000 C   0  0
    9.2962  -10.7714    0.0000 C   0  0
   10.7255  -10.7631    0.0000 C   0  0
   10.0005   -9.5296    0.0000 C   0  0
   10.7172   -9.9338    0.0000 C   0  0
  2  1  1  0
  3  7  1  0
  4 15  1  0
  5  1  1  0
  6 16  2  0
  7  6  1  0
  8  9  3  0
  9 27  1  0
 10  4  1  0
 11  5  1  0
 12  1  2  0
 13  2  1  0
 14  2  1  0
 15 14  1  0
 16 10  1  0
 17 13  1  0
 18 30  1  0
 19  5  1  0
 20 21  1  0
 21 10  2  0
 22  3  1  0
 23  3  1  0
 24  3  1  0
 25 11  2  0
 26 11  1  0
 27 28  2  0
 28 25  1  0
 29 26  2  0
 30 19  2  0
 31 33  1  0
 32 19  1  0
 33 32  2  0
  4 17  1  0
 29 27  1  0
 31 18  2  0
  7 20  2  0
M  END
> <COMPOUND_ID>
DNDI1808298

$$$$

  SciTegic03121405412D

 33 36  0  0  0  0            999 V2000
    8.5753   -8.7129    0.0000 C   0  0
    9.2879   -8.2962    0.0000 N   0  0
   13.5633   -5.8251    0.0000 C   0  0
   10.7130   -7.4711    0.0000 N   0  0
    8.5795   -9.5379    0.0000 C   0  0
    5.0000  -11.6048    0.0000 N   0  0
   12.8507   -6.2376    0.0000 C   0  0
    5.7209  -11.1964    0.0000 C   0  0
   11.4256   -7.0585    0.0000 C   0  0
    7.8669   -9.9546    0.0000 C   0  0
    7.8586   -8.3045    0.0000 O   0  0
    9.2796   -7.4752    0.0000 C   0  0
   10.0005   -8.7087    0.0000 C   0  0
   10.7089   -8.3003    0.0000 C   0  0
    9.9963   -7.0627    0.0000 C   0  0
   10.0088  -11.1798    0.0000 N   0  0
    9.2962   -9.9463    0.0000 C   0  0
   12.1298   -5.8251    0.0000 C   0  0
   12.8507   -7.0627    0.0000 C   0  0
   11.4173   -6.2418    0.0000 C   0  0
   12.1340   -7.4752    0.0000 C   0  0
   14.2800   -6.2376    0.0000 F   0  0
   13.5633   -5.0000    0.0000 F   0  0
   13.7800   -6.6210    0.0000 F   0  0
    7.1502   -9.5421    0.0000 C   0  0
    7.8669  -10.7839    0.0000 C   0  0
    6.4376  -10.7839    0.0000 C   0  0
    6.4376   -9.9546    0.0000 C   0  0
    7.1502  -11.1964    0.0000 C   0  0
    9.2962  -10.7714    0.0000 C   0  0
   10.7255  -10.7631    0.0000 C   0  0
   10.0005   -9.5296    0.0000 C   0  0
   10.7172   -9.9338    0.0000 C   0  0
  2  1  1  0
  3  7  1  0
  4 15  1  0
  5  1  1  0
  6  8  3  0
  7 18  1  0
  8 27  1  0
  9  4  1  0
 10  5  1  0
 11  1  2  0
 12  2  1  0
 13  2  1  0
 14 13  1  0
 15 12  1  0
 16 30  1  0
 17  5  1  0
 18 20  2  0
 19 21  1  0
 20  9  1  0
 21  9  2  0
 22  3  1  0
 23  3  1  0
 24  3  1  0
 25 10  2  0
 26 10  1  0
 27 28  2  0
 28 25  1  0
 29 26  2  0
 30 17  2  0
 31 33  1  0
 32 17  1  0
 33 32  2  0
  4 14  1  0
 29 27  1  0
 31 16  2  0
  7 19  2  0
M  END
> <COMPOUND_ID>
DNDI1808299

$$$$

  SciTegic03121405412D

 30 32  0  0  0  0            999 V2000
   11.3201   -5.8254    0.0000 C   0  0
    8.4894   -7.5180    0.0000 C   0  0
   10.6114   -6.2465    0.0000 N   0  0
    9.1981   -7.0928    0.0000 N   0  0
    8.5061   -8.3435    0.0000 C   0  0
    5.0000  -10.5155    0.0000 N   0  0
   12.0414   -6.2215    0.0000 O   0  0
    5.6712  -10.0361    0.0000 C   0  0
    7.7974   -8.7687    0.0000 C   0  0
   11.3076   -5.0000    0.0000 O   0  0
    7.7682   -7.1178    0.0000 O   0  0
    9.8860   -5.8463    0.0000 C   0  0
   10.6197   -7.0719    0.0000 C   0  0
    9.1773   -6.2673    0.0000 C   0  0
    9.9152   -7.4930    0.0000 C   0  0
    9.9569   -9.9652    0.0000 N   0  0
   12.8168   -5.9505    0.0000 C   0  0
    9.2273   -8.7437    0.0000 C   0  0
    7.0761   -8.3685    0.0000 C   0  0
    7.8099   -9.5983    0.0000 C   0  0
    6.3799   -9.6192    0.0000 C   0  0
    6.3674   -8.7896    0.0000 C   0  0
    7.1012  -10.0236    0.0000 C   0  0
    9.2357   -9.5650    0.0000 C   0  0
   10.6656   -9.5400    0.0000 C   0  0
   13.4421   -6.4883    0.0000 C   0  0
   12.9710   -5.1417    0.0000 C   0  0
   12.8751   -6.7760    0.0000 C   0  0
    9.9277   -8.3143    0.0000 C   0  0
   10.6489   -8.7103    0.0000 C   0  0
  2  4  1  0
  3  1  1  0
  4 14  1  0
  5  2  1  0
  6  8  3  0
  7  1  1  0
  8 21  1  0
  9  5  1  0
 10  1  2  0
 11  2  2  0
 12  3  1  0
 13  3  1  0
 14 12  1  0
 15 13  1  0
 16 24  1  0
 17  7  1  0
 18  5  1  0
 19  9  2  0
 20  9  1  0
 21 22  2  0
 22 19  1  0
 23 20  2  0
 24 18  2  0
 25 16  2  0
 26 17  1  0
 27 17  1  0
 28 17  1  0
 29 18  1  0
 30 29  2  0
 15  4  1  0
 30 25  1  0
 23 21  1  0
M  END
> <COMPOUND_ID>
DNDI1808960

$$$$

  SciTegic03121405412D

 33 36  0  0  0  0            999 V2000
    6.5943   -8.9989    0.0000 C   0  0
    6.4907   -9.8199    0.0000 C   0  0
    7.1490  -10.3182    0.0000 C   0  0
    7.9113   -9.9967    0.0000 C   0  0
    8.0113   -9.1720    0.0000 C   0  0
    7.3520   -8.6774    0.0000 C   0  0
    5.7303  -10.1360    0.0000 C   0  0
    5.0000  -10.5201    0.0000 N   0  0
    8.7703   -8.8483    0.0000 C   0  0
    9.4302   -9.3437    0.0000 C   0  0
    8.8694   -8.0291    0.0000 C   0  0
    9.6284   -7.7053    0.0000 N   0  0
    8.2095   -7.5336    0.0000 O   0  0
    9.3281  -10.1602    0.0000 C   0  0
    9.9872  -10.6554    0.0000 N   0  0
   10.7471  -10.3317    0.0000 C   0  0
   10.8441   -9.5079    0.0000 C   0  0
   10.1840   -9.0163    0.0000 C   0  0
   10.2831   -8.2029    0.0000 C   0  0
   11.0396   -7.8824    0.0000 C   0  0
   11.1430   -7.0634    0.0000 N   0  0
   10.4835   -6.5658    0.0000 C   0  0
    9.7206   -6.8872    0.0000 C   0  0
   11.9032   -6.7425    0.0000 C   0  0
   12.5590   -7.2431    0.0000 C   0  0
   13.3187   -6.9229    0.0000 C   0  0
   13.4214   -6.1032    0.0000 C   0  0
   12.7584   -5.6048    0.0000 C   0  0
   12.0014   -5.9278    0.0000 N   0  0
   14.1789   -5.7820    0.0000 C   0  0
   14.4425   -6.5645    0.0000 F   0  0
   14.9275   -5.4348    0.0000 F   0  0
   13.9155   -5.0000    0.0000 F   0  0
  1  2  2  0
  2  3  1  0
  3  4  2  0
  4  5  1  0
  5  6  2  0
  6  1  1  0
  2  7  1  0
  7  8  3  0
  5  9  1  0
  9 10  1  0
  9 11  1  0
 11 12  1  0
 11 13  2  0
 10 14  2  0
 14 15  1  0
 15 16  2  0
 16 17  1  0
 17 18  2  0
 18 10  1  0
 12 19  1  0
 12 23  1  0
 19 20  1  0
 20 21  1  0
 21 22  1  0
 22 23  1  0
 21 24  1  0
 24 25  2  0
 25 26  1  0
 26 27  2  0
 27 28  1  0
 28 29  2  0
 29 24  1  0
 27 30  1  0
 30 31  1  0
 30 32  1  0
 30 33  1  0
M  END
> <COMPOUND_ID>
DNDI1809580

$$$$

  SciTegic03121405412D

 32 35  0  0  0  0            999 V2000
   12.8434   -5.7168    0.0000 S   0  0
    7.8548   -8.6050    0.0000 C   0  0
    8.5675   -8.1882    0.0000 N   0  0
    9.9928   -7.3631    0.0000 N   0  0
    7.8590   -9.4302    0.0000 C   0  0
   12.1308   -6.1294    0.0000 C   0  0
   10.7055   -6.9505    0.0000 C   0  0
    8.5758   -9.8386    0.0000 C   0  0
   12.4267   -5.0000    0.0000 O   0  0
   13.4227   -6.3003    0.0000 O   0  0
    7.1463   -9.8470    0.0000 C   0  0
    7.1380   -8.1966    0.0000 O   0  0
    8.5591   -7.3672    0.0000 C   0  0
    9.2801   -8.6008    0.0000 C   0  0
    9.9886   -8.1924    0.0000 C   0  0
    9.2760   -6.9546    0.0000 C   0  0
    9.9970   -9.8261    0.0000 N   0  0
    9.2885  -11.0722    0.0000 N   0  0
   10.0053  -10.6555    0.0000 C   0  0
   11.4098   -5.7168    0.0000 C   0  0
   12.1308   -6.9546    0.0000 C   0  0
   10.6971   -6.1336    0.0000 C   0  0
   11.4140   -7.3672    0.0000 C   0  0
    7.1463  -10.6763    0.0000 C   0  0
    6.4295   -9.4344    0.0000 C   0  0
   13.5561   -5.3001    0.0000 C   0  0
    5.7168  -10.6763    0.0000 C   0  0
    5.7168   -9.8470    0.0000 C   0  0
    6.4295  -11.0889    0.0000 C   0  0
    8.5758  -10.6638    0.0000 C   0  0
    9.2801   -9.4219    0.0000 C   0  0
    5.0000  -11.0889    0.0000 Cl  0  0
  2  3  1  0
  3 14  1  0
  4  7  1  0
  5  2  1  0
  6  1  1  0
  7 22  1  0
  8  5  1  0
  9  1  2  0
 10  1  2  0
 11  5  1  0
 12  2  2  0
 13 16  1  0
 14 15  1  0
 15  4  1  0
 16  4  1  0
 17 31  2  0
 18 30  1  0
 19 17  1  0
 20  6  1  0
 21  6  2  0
 22 20  2  0
 23 21  1  0
 24 11  1  0
 25 11  2  0
 26  1  1  0
 27 28  2  0
 28 25  1  0
 29 24  2  0
 30  8  2  0
 31  8  1  0
 32 27  1  0
 23  7  2  0
 13  3  1  0
 29 27  1  0
 19 18  2  0
M  END
> <COMPOUND_ID>
DNDI1809921

$$$$

  SciTegic03121405412D

 32 35  0  0  0  0            999 V2000
    7.9932   -8.3058    0.0000 C   0  0
    8.7310   -7.9306    0.0000 N   0  0
   13.1416   -5.7087    0.0000 C   0  0
   10.1984   -7.1886    0.0000 N   0  0
    7.9473   -9.1270    0.0000 C   0  0
   11.7117   -5.6295    0.0000 N   0  0
   12.4037   -6.0797    0.0000 C   0  0
   10.9363   -6.8175    0.0000 C   0  0
    8.6393   -9.5814    0.0000 C   0  0
    7.2136   -9.5022    0.0000 C   0  0
    7.3012   -7.8556    0.0000 O   0  0
    9.4147   -8.3850    0.0000 C   0  0
    8.7686   -7.1094    0.0000 C   0  0
    9.5064   -6.7383    0.0000 C   0  0
   10.9780   -6.0005    0.0000 C   0  0
   10.1484   -8.0140    0.0000 C   0  0
   10.0609   -9.6481    0.0000 N   0  0
    9.2813  -10.8529    0.0000 N   0  0
   12.3578   -6.9051    0.0000 C   0  0
   10.0192  -10.4777    0.0000 C   0  0
   11.6200   -7.2761    0.0000 C   0  0
   12.7164   -5.0000    0.0000 F   0  0
   13.5918   -6.4007    0.0000 F   0  0
   13.8794   -5.3418    0.0000 F   0  0
    6.5216   -9.0520    0.0000 C   0  0
    7.1678  -10.3318    0.0000 C   0  0
    5.7379  -10.2484    0.0000 C   0  0
    5.7879   -9.4230    0.0000 C   0  0
    6.4257  -10.7028    0.0000 C   0  0
    8.5935  -10.4027    0.0000 C   0  0
    9.3689   -9.2021    0.0000 C   0  0
    5.0000  -10.6195    0.0000 Cl  0  0
  2  1  1  0
  3  7  1  0
  4 14  1  0
  5  1  1  0
  6 15  2  0
  7  6  1  0
  8  4  1  0
  9  5  1  0
 10  5  1  0
 11  1  2  0
 12  2  1  0
 13  2  1  0
 14 13  1  0
 15  8  1  0
 16 12  1  0
 17 31  2  0
 18 30  1  0
 19 21  1  0
 20 17  1  0
 21  8  2  0
 22  3  1  0
 23  3  1  0
 24  3  1  0
 25 10  2  0
 26 10  1  0
 27 28  2  0
 28 25  1  0
 29 26  2  0
 30  9  2  0
 31  9  1  0
 32 27  1  0
  4 16  1  0
 29 27  1  0
 20 18  2  0
  7 19  2  0
M  END
> <COMPOUND_ID>
DNDI1809922

$$$$

  SciTegic03121405412D

 32 35  0  0  0  0            999 V2000
    7.9927   -8.3054    0.0000 C   0  0
   13.1404   -5.7086    0.0000 C   0  0
    8.7305   -7.9302    0.0000 N   0  0
   10.1977   -7.1883    0.0000 N   0  0
   12.4026   -6.0796    0.0000 C   0  0
   10.9354   -6.8173    0.0000 C   0  0
   10.9771   -6.0004    0.0000 N   0  0
    7.9469   -9.1265    0.0000 C   0  0
   11.7107   -5.6252    0.0000 C   0  0
    8.6388   -9.5808    0.0000 C   0  0
    7.2133   -9.5016    0.0000 C   0  0
    7.3008   -7.8552    0.0000 O   0  0
    8.7680   -7.1091    0.0000 C   0  0
    9.4141   -8.3846    0.0000 C   0  0
   10.1477   -8.0136    0.0000 C   0  0
    9.5058   -6.7381    0.0000 C   0  0
   10.0601   -9.6475    0.0000 N   0  0
    9.2807  -10.8521    0.0000 N   0  0
   12.3568   -6.9049    0.0000 C   0  0
   11.6190   -7.2758    0.0000 C   0  0
   10.0185  -10.4770    0.0000 C   0  0
   12.7152   -5.0000    0.0000 F   0  0
   13.5906   -6.4005    0.0000 F   0  0
   13.8782   -5.3418    0.0000 F   0  0
    6.5214   -9.0515    0.0000 C   0  0
    7.1674  -10.3311    0.0000 C   0  0
    5.7378  -10.2477    0.0000 C   0  0
    5.7878   -9.4224    0.0000 C   0  0
    6.4255  -10.7020    0.0000 C   0  0
    8.5929  -10.4019    0.0000 C   0  0
    9.3682   -9.2015    0.0000 C   0  0
    5.0000  -10.6187    0.0000 Cl  0  0
  2  5  1  0
  3  1  1  0
  4 16  1  0
  5  9  1  0
  6  4  1  0
  7  6  1  0
  8  1  1  0
  9  7  2  0
 10  8  1  0
 11  8  1  0
 12  1  2  0
 13  3  1  0
 14  3  1  0
 15 14  1  0
 16 13  1  0
 17 31  2  0
 18 30  1  0
 19 20  1  0
 20  6  2  0
 21 17  1  0
 22  2  1  0
 23  2  1  0
 24  2  1  0
 25 11  2  0
 26 11  1  0
 27 28  2  0
 28 25  1  0
 29 26  2  0
 30 10  2  0
 31 10  1  0
 32 27  1  0
  4 15  1  0
 29 27  1  0
 21 18  2  0
  5 19  2  0
M  END
> <COMPOUND_ID>
DNDI1809923

$$$$

  SciTegic03121405412D

 32 35  0  0  0  0            999 V2000
    7.9931   -8.3058    0.0000 C   0  0
    8.7310   -7.9306    0.0000 N   0  0
   13.1415   -5.7087    0.0000 C   0  0
   10.1984   -7.1886    0.0000 N   0  0
    7.9473   -9.1270    0.0000 C   0  0
   12.4036   -6.0797    0.0000 C   0  0
   10.9363   -6.8176    0.0000 C   0  0
    8.6393   -9.5814    0.0000 C   0  0
    7.2136   -9.5022    0.0000 C   0  0
    7.3011   -7.8556    0.0000 O   0  0
    8.7685   -7.1094    0.0000 C   0  0
    9.4147   -8.3850    0.0000 C   0  0
   10.1484   -8.0140    0.0000 C   0  0
    9.5064   -6.7384    0.0000 C   0  0
   10.0608   -9.6481    0.0000 N   0  0
    9.2813  -10.8529    0.0000 N   0  0
   10.0191  -10.4777    0.0000 C   0  0
   12.3578   -6.9051    0.0000 C   0  0
   11.7241   -5.6253    0.0000 C   0  0
   10.9863   -5.9963    0.0000 C   0  0
   11.6199   -7.2761    0.0000 C   0  0
   13.8794   -5.3418    0.0000 F   0  0
   12.7163   -5.0000    0.0000 F   0  0
   13.5917   -6.4007    0.0000 F   0  0
    6.5216   -9.0520    0.0000 C   0  0
    7.1677  -10.3318    0.0000 C   0  0
    5.7379  -10.2484    0.0000 C   0  0
    5.7879   -9.4230    0.0000 C   0  0
    6.4257  -10.7028    0.0000 C   0  0
    8.5934  -10.4027    0.0000 C   0  0
    9.3688   -9.2021    0.0000 C   0  0
    5.0000  -10.6195    0.0000 Cl  0  0
  2  1  1  0
  3  6  1  0
  4 14  1  0
  5  1  1  0
  6 19  1  0
  7  4  1  0
  8  5  1  0
  9  5  1  0
 10  1  2  0
 11  2  1  0
 12  2  1  0
 13 12  1  0
 14 11  1  0
 15 31  2  0
 16 30  1  0
 17 15  1  0
 18 21  1  0
 19 20  2  0
 20  7  1  0
 21  7  2  0
 22  3  1  0
 23  3  1  0
 24  3  1  0
 25  9  2  0
 26  9  1  0
 27 28  2  0
 28 25  1  0
 29 26  2  0
 30  8  2  0
 31  8  1  0
 32 27  1  0
  4 13  1  0
 29 27  1  0
 17 16  2  0
  6 18  2  0
M  END
> <COMPOUND_ID>
DNDI1809924

$$$$

  SciTegic03121405412D

 31 34  0  0  0  0            999 V2000
    7.8624   -7.4624    0.0000 C   0  0
    8.5790   -7.0541    0.0000 N   0  0
   10.7248   -5.8250    0.0000 C   0  0
   10.0081   -6.2375    0.0000 N   0  0
    7.8624   -8.2874    0.0000 C   0  0
   11.4373   -6.2333    0.0000 C   0  0
    7.1458   -8.6999    0.0000 C   0  0
    7.1499   -7.0499    0.0000 O   0  0
    8.5832   -6.2291    0.0000 C   0  0
    9.2957   -7.4666    0.0000 C   0  0
    9.2957   -5.8167    0.0000 C   0  0
   10.0123   -7.0583    0.0000 C   0  0
   10.7248   -5.0000    0.0000 O   0  0
    9.2790   -9.9415    0.0000 N   0  0
    8.5749   -8.7040    0.0000 C   0  0
   11.4373   -7.0624    0.0000 C   0  0
   12.1497   -5.8208    0.0000 C   0  0
    6.4333   -8.2791    0.0000 C   0  0
    7.1458   -9.5165    0.0000 C   0  0
    5.7166   -9.5123    0.0000 C   0  0
   12.8664   -7.0624    0.0000 C   0  0
    5.7166   -8.6874    0.0000 C   0  0
   12.1497   -7.4749    0.0000 C   0  0
    6.4333   -9.9290    0.0000 C   0  0
   12.8664   -6.2333    0.0000 C   0  0
   13.5830   -7.4749    0.0000 Cl  0  0
    5.0000   -9.9248    0.0000 Cl  0  0
    8.5665   -9.5290    0.0000 C   0  0
    9.9956   -9.5332    0.0000 C   0  0
    9.2832   -8.2916    0.0000 C   0  0
    9.9956   -8.7040    0.0000 C   0  0
  2  1  1  0
  3  4  1  0
  4 12  1  0
  5  1  1  0
  6  3  1  0
  7  5  1  0
  8  1  2  0
  9  2  1  0
 10  2  1  0
 11  9  1  0
 12 10  1  0
 13  3  2  0
 14 28  1  0
 15  5  1  0
 16  6  2  0
 17  6  1  0
 18  7  2  0
 19  7  1  0
 20 24  1  0
 21 23  2  0
 22 18  1  0
 23 16  1  0
 24 19  2  0
 25 17  2  0
 26 21  1  0
 27 20  1  0
 28 15  2  0
 29 31  1  0
 30 15  1  0
 31 30  2  0
 11  4  1  0
 20 22  2  0
 29 14  2  0
 25 21  1  0
M  END
> <COMPOUND_ID>
DNDI1810521

$$$$

  SciTegic03121405412D

 30 33  0  0  0  0            999 V2000
    7.8626   -7.4626    0.0000 C   0  0
    8.5793   -7.0542    0.0000 N   0  0
   10.7252   -5.8250    0.0000 C   0  0
   10.0085   -6.2375    0.0000 N   0  0
    7.8626   -8.2876    0.0000 C   0  0
    7.1459   -8.7001    0.0000 C   0  0
    7.1501   -7.0500    0.0000 O   0  0
    8.5834   -6.2292    0.0000 C   0  0
    9.2960   -7.4667    0.0000 C   0  0
    9.2960   -5.8167    0.0000 C   0  0
   10.0127   -7.0584    0.0000 C   0  0
   10.7252   -5.0000    0.0000 O   0  0
   11.4377   -6.2333    0.0000 C   0  0
    9.2793   -9.9418    0.0000 N   0  0
    8.5751   -8.7043    0.0000 C   0  0
    6.4334   -8.2792    0.0000 C   0  0
    7.1459   -9.5168    0.0000 C   0  0
    5.7167   -9.5126    0.0000 C   0  0
    6.4334   -9.9293    0.0000 C   0  0
    5.7167   -8.6876    0.0000 C   0  0
    5.0000   -9.9251    0.0000 Cl  0  0
    8.5668   -9.5293    0.0000 C   0  0
    9.9960   -9.5335    0.0000 C   0  0
   11.4377   -7.0625    0.0000 C   0  0
   12.1502   -5.8208    0.0000 C   0  0
    9.2835   -8.2917    0.0000 C   0  0
    9.9960   -8.7043    0.0000 C   0  0
   12.8669   -6.2333    0.0000 C   0  0
   12.1502   -7.4751    0.0000 C   0  0
   12.8669   -7.0625    0.0000 C   0  0
  2  1  1  0
  3  4  1  0
  4 11  1  0
  5  1  1  0
  6  5  1  0
  7  1  2  0
  8  2  1  0
  9  2  1  0
 10  8  1  0
 11  9  1  0
 12  3  2  0
 13  3  1  0
 14 22  1  0
 15  5  1  0
 16  6  2  0
 17  6  1  0
 18 19  1  0
 19 17  2  0
 20 16  1  0
 21 18  1  0
 22 15  2  0
 23 27  1  0
 24 13  2  0
 25 13  1  0
 26 15  1  0
 27 26  2  0
 28 25  2  0
 29 24  1  0
 30 29  2  0
 10  4  1  0
 18 20  2  0
 23 14  2  0
 28 30  1  0
M  END
> <COMPOUND_ID>
DNDI1810522

$$$$

  SciTegic03121405412D

 27 30  0  0  0  0            999 V2000
   10.7262   -5.9960    0.0000 C   0  0
    7.8631   -7.6338    0.0000 C   0  0
    8.5799   -7.2254    0.0000 N   0  0
   10.0094   -6.4086    0.0000 N   0  0
   10.8095   -5.1750    0.0000 N   0  0
    7.8631   -8.4590    0.0000 C   0  0
   11.4763   -6.3294    0.0000 S   0  0
    7.1463   -8.8716    0.0000 C   0  0
    7.1504   -7.2212    0.0000 O   0  0
   11.6180   -5.0000    0.0000 C   0  0
    9.2967   -7.6380    0.0000 C   0  0
    8.5841   -6.4002    0.0000 C   0  0
   10.0135   -7.2296    0.0000 C   0  0
    9.2967   -5.9877    0.0000 C   0  0
   12.0306   -5.7168    0.0000 C   0  0
    9.2800  -10.1135    0.0000 N   0  0
    8.5757   -8.8757    0.0000 C   0  0
    6.4336   -8.4507    0.0000 C   0  0
    7.1463   -9.6884    0.0000 C   0  0
    5.7168   -9.6842    0.0000 C   0  0
    6.4336  -10.1010    0.0000 C   0  0
    5.7168   -8.8591    0.0000 C   0  0
    5.0000  -10.0968    0.0000 Cl  0  0
    8.5674   -9.7009    0.0000 C   0  0
    9.9969   -9.7051    0.0000 C   0  0
    9.2842   -8.4632    0.0000 C   0  0
    9.9969   -8.8757    0.0000 C   0  0
  2  3  1  0
  3 11  1  0
  4  1  1  0
  5  1  2  0
  6  2  1  0
  7  1  1  0
  8  6  1  0
  9  2  2  0
 10  5  1  0
 11 13  1  0
 12 14  1  0
 13  4  1  0
 14  4  1  0
 15  7  1  0
 16 24  1  0
 17  6  1  0
 18  8  2  0
 19  8  1  0
 20 21  1  0
 21 19  2  0
 22 18  1  0
 23 20  1  0
 24 17  2  0
 25 16  2  0
 26 17  1  0
 27 26  2  0
 10 15  2  0
  3 12  1  0
 27 25  1  0
 20 22  2  0
M  END
> <COMPOUND_ID>
DNDI1813380

$$$$

  SciTegic03121405412D

 33 36  0  0  0  0            999 V2000
    7.8633   -7.4215    0.0000 C   0  0
   13.5733   -5.7711    0.0000 C   0  0
    8.5802   -7.0131    0.0000 N   0  0
    7.8633   -8.2468    0.0000 C   0  0
   10.0098   -6.1962    0.0000 N   0  0
   12.8606   -6.1878    0.0000 C   0  0
    7.1464   -8.6594    0.0000 C   0  0
    7.1506   -7.0089    0.0000 O   0  0
   12.1479   -5.7794    0.0000 C   0  0
    9.2971   -7.4257    0.0000 C   0  0
    8.5844   -6.1878    0.0000 C   0  0
    9.2804   -9.9014    0.0000 N   0  0
    8.5760   -8.6635    0.0000 C   0  0
   11.4393   -6.1920    0.0000 C   0  0
   10.7266   -5.7836    0.0000 C   0  0
   13.8942   -6.5338    0.0000 F   0  0
   13.2774   -5.0000    0.0000 F   0  0
   14.2860   -5.3501    0.0000 F   0  0
    7.1464   -9.4763    0.0000 C   0  0
    6.4337   -8.2384    0.0000 C   0  0
   10.0139   -7.0172    0.0000 C   0  0
    9.2971   -5.7752    0.0000 C   0  0
    5.7169   -9.4721    0.0000 C   0  0
    5.7169   -8.6469    0.0000 C   0  0
    6.4337   -9.8889    0.0000 C   0  0
    5.0000   -9.8847    0.0000 Cl  0  0
    8.5677   -9.4888    0.0000 C   0  0
   12.8648   -7.0172    0.0000 C   0  0
   12.1479   -7.4299    0.0000 C   0  0
    9.9973   -9.4929    0.0000 C   0  0
   11.4352   -7.0172    0.0000 C   0  0
    9.2846   -8.2509    0.0000 C   0  0
    9.9973   -8.6635    0.0000 C   0  0
  2  6  1  0
  3  1  1  0
  4  1  1  0
  5 21  1  0
  6  9  2  0
  7  4  1  0
  8  1  2  0
  9 14  1  0
 10  3  1  0
 11  3  1  0
 12 27  1  0
 13  4  1  0
 14 15  1  0
 15  5  1  0
 16  2  1  0
 17  2  1  0
 18  2  1  0
 19  7  1  0
 20  7  2  0
 21 10  1  0
 22 11  1  0
 23 25  1  0
 24 20  1  0
 25 19  2  0
 26 23  1  0
 27 13  2  0
 28  6  1  0
 29 31  1  0
 30 12  2  0
 31 14  2  0
 32 13  1  0
 33 32  2  0
 22  5  1  0
 33 30  1  0
 23 24  2  0
 28 29  2  0
M  END
> <COMPOUND_ID>
DNDI1813382

$$$$

  SciTegic03121405412D

 33 36  0  0  0  0            999 V2000
    7.8636   -8.2930    0.0000 C   0  0
   12.1403   -5.8253    0.0000 C   0  0
    8.5806   -7.8845    0.0000 N   0  0
    7.8636   -9.1183    0.0000 C   0  0
   12.1486   -6.6507    0.0000 C   0  0
   11.4400   -7.0633    0.0000 C   0  0
   10.0103   -7.0675    0.0000 N   0  0
   10.7272   -6.6548    0.0000 C   0  0
    7.1467   -9.5309    0.0000 C   0  0
    7.1508   -7.8803    0.0000 O   0  0
    9.2975   -8.2971    0.0000 C   0  0
    8.5847   -7.0592    0.0000 C   0  0
    9.2808  -10.7731    0.0000 N   0  0
    8.5764   -9.5351    0.0000 C   0  0
   12.9614   -5.7295    0.0000 F   0  0
   11.3358   -5.6378    0.0000 F   0  0
   12.1111   -5.0000    0.0000 F   0  0
    6.4339   -9.1100    0.0000 C   0  0
    7.1467  -10.3479    0.0000 C   0  0
    9.2975   -6.6465    0.0000 C   0  0
   10.0145   -7.8886    0.0000 C   0  0
    5.7169  -10.3438    0.0000 C   0  0
    6.4339  -10.7606    0.0000 C   0  0
    5.7169   -9.5184    0.0000 C   0  0
    5.0000  -10.7564    0.0000 Cl  0  0
    8.5681  -10.3604    0.0000 C   0  0
   11.4358   -7.8886    0.0000 C   0  0
   12.8614   -7.0592    0.0000 C   0  0
    9.9978  -10.3646    0.0000 C   0  0
    9.2850   -9.1225    0.0000 C   0  0
    9.9978   -9.5351    0.0000 C   0  0
   12.1486   -8.3013    0.0000 C   0  0
   12.8656   -7.8886    0.0000 C   0  0
  2  5  1  0
  3  1  1  0
  4  1  1  0
  5  6  1  0
  6  8  1  0
  7 21  1  0
  8  7  1  0
  9  4  1  0
 10  1  2  0
 11  3  1  0
 12  3  1  0
 13 26  1  0
 14  4  1  0
 15  2  1  0
 16  2  1  0
 17  2  1  0
 18  9  2  0
 19  9  1  0
 20 12  1  0
 21 11  1  0
 22 23  1  0
 23 19  2  0
 24 18  1  0
 25 22  1  0
 26 14  2  0
 27  6  2  0
 28  5  2  0
 29 13  2  0
 30 14  1  0
 31 30  2  0
 32 27  1  0
 33 28  1  0
 20  7  1  0
 31 29  1  0
 22 24  2  0
 33 32  2  0
M  END
> <COMPOUND_ID>
DNDI1813385

$$$$

  SciTegic03121405412D

 26 28  0  0  0  0            999 V2000
    7.8643   -6.6469    0.0000 C   0  0
    8.5815   -6.2383    0.0000 N   0  0
    7.8643   -7.4725    0.0000 C   0  0
   10.0116   -5.4211    0.0000 N   0  0
    7.1472   -7.8852    0.0000 C   0  0
    7.1514   -6.2342    0.0000 O   0  0
    8.5856   -5.4128    0.0000 C   0  0
    9.2986   -6.6511    0.0000 C   0  0
    9.2819   -9.1277    0.0000 N   0  0
    8.5773   -7.8894    0.0000 C   0  0
    6.4343   -7.4641    0.0000 C   0  0
    7.1472   -8.7024    0.0000 C   0  0
    9.2986   -5.0000    0.0000 C   0  0
   10.0157   -6.2425    0.0000 C   0  0
   10.7287   -5.0084    0.0000 C   0  0
    5.7171   -8.6983    0.0000 C   0  0
    6.4343   -9.1152    0.0000 C   0  0
    5.7171   -7.8727    0.0000 C   0  0
    5.0000   -9.1110    0.0000 Cl  0  0
    8.5690   -8.7149    0.0000 C   0  0
    9.9991   -8.7191    0.0000 C   0  0
   11.4417   -5.4170    0.0000 C   0  0
    9.2861   -7.4766    0.0000 C   0  0
   12.1504   -5.0042    0.0000 C   0  0
   11.4458   -6.2425    0.0000 C   0  0
    9.9991   -7.8894    0.0000 C   0  0
  2  1  1  0
  3  1  1  0
  4 13  1  0
  5  3  1  0
  6  1  2  0
  7  2  1  0
  8  2  1  0
  9 20  1  0
 10  3  1  0
 11  5  2  0
 12  5  1  0
 13  7  1  0
 14  8  1  0
 15  4  1  0
 16 17  1  0
 17 12  2  0
 18 11  1  0
 19 16  1  0
 20 10  2  0
 21 26  1  0
 22 15  1  0
 23 10  1  0
 24 22  1  0
 25 22  1  0
 26 23  2  0
 14  4  1  0
 16 18  2  0
 21  9  2  0
M  END
> <COMPOUND_ID>
DNDI1845811

$$$$

  SciTegic03121405412D

 26 28  0  0  0  0            999 V2000
    7.8538   -6.6615    0.0000 C   0  0
    8.5765   -6.2462    0.0000 N   0  0
    7.8538   -7.4882    0.0000 C   0  0
   10.0055   -5.4195    0.0000 N   0  0
    7.1434   -7.8994    0.0000 C   0  0
    7.1351   -6.2462    0.0000 O   0  0
    8.5765   -5.4195    0.0000 C   0  0
    9.2952   -6.6574    0.0000 C   0  0
    9.2785   -9.1373    0.0000 N   0  0
    8.5682   -7.8994    0.0000 C   0  0
    6.4331   -7.4882    0.0000 C   0  0
    7.1434   -8.7261    0.0000 C   0  0
    9.2910   -5.0083    0.0000 C   0  0
   10.0055   -6.2462    0.0000 C   0  0
    5.7186   -8.7261    0.0000 C   0  0
    6.4331   -9.1373    0.0000 C   0  0
    5.7186   -7.8994    0.0000 C   0  0
    5.0000   -9.1456    0.0000 Cl  0  0
    8.5682   -8.7261    0.0000 C   0  0
   10.7158   -5.0041    0.0000 C   0  0
   12.1406   -5.0000    0.0000 O   0  0
    9.9930   -8.7261    0.0000 C   0  0
    9.2785   -7.4882    0.0000 C   0  0
   11.4303   -5.4154    0.0000 C   0  0
   12.8551   -5.4112    0.0000 C   0  0
    9.9930   -7.8994    0.0000 C   0  0
  2  1  1  0
  3  1  1  0
  4 14  1  0
  5  3  1  0
  6  1  2  0
  7  2  1  0
  8  2  1  0
  9 19  1  0
 10  3  1  0
 11  5  2  0
 12  5  1  0
 13  7  1  0
 14  8  1  0
 15 17  2  0
 16 12  2  0
 17 11  1  0
 18 15  1  0
 19 10  2  0
 20  4  1  0
 21 24  1  0
 22 26  1  0
 23 10  1  0
 24 20  1  0
 25 21  1  0
 26 23  2  0
 13  4  1  0
 16 15  1  0
 22  9  2  0
M  END
> <COMPOUND_ID>
DNDI1845898

$$$$
